{
  "completed_at": "20211224T152105Z",
  "completed_status": "Success",
  "created_at": "2021-12-24 15:17:58 +0000",
  "current_step": 3,
  "description": "",
  "eplusout_err": "Program Version,EnergyPlus, Version 9.3.0-baff08990c, YMD=2021.12.24 15:19,\n   ************* Beginning Zone Sizing Calculations\n   ** Warning ** ProcessScheduleInput: Schedule:Day:Interval=\"ECONOMIZER MAX OA FRACTION 100 PCT DEFAULT\", Blank Schedule Type Limits Name input -- will not be validated.\n   ** Warning ** ProcessScheduleInput: Schedule:Day:Interval=\"SCHEDULE DAY 1\", Blank Schedule Type Limits Name input -- will not be validated.\n   ** Warning ** ProcessScheduleInput: Schedule:Day:Interval=\"SCHEDULE DAY 10\", Blank Schedule Type Limits Name input -- will not be validated.\n   ** Warning ** ProcessScheduleInput: Schedule:Day:Interval=\"SCHEDULE DAY 11\", Blank Schedule Type Limits Name input -- will not be validated.\n   ** Warning ** ProcessScheduleInput: Schedule:Day:Interval=\"SCHEDULE DAY 12\", Blank Schedule Type Limits Name input -- will not be validated.\n   ** Warning ** ProcessScheduleInput: Schedule:Day:Interval=\"SCHEDULE DAY 13\", Blank Schedule Type Limits Name input -- will not be validated.\n   ** Warning ** ProcessScheduleInput: Schedule:Day:Interval=\"SCHEDULE DAY 14\", Blank Schedule Type Limits Name input -- will not be validated.\n   ** Warning ** ProcessScheduleInput: Schedule:Day:Interval=\"SCHEDULE DAY 15\", Blank Schedule Type Limits Name input -- will not be validated.\n   ** Warning ** ProcessScheduleInput: Schedule:Day:Interval=\"SCHEDULE DAY 16\", Blank Schedule Type Limits Name input -- will not be validated.\n   ** Warning ** ProcessScheduleInput: Schedule:Day:Interval=\"SCHEDULE DAY 17\", Blank Schedule Type Limits Name input -- will not be validated.\n   ** Warning ** ProcessScheduleInput: Schedule:Day:Interval=\"SCHEDULE DAY 18\", Blank Schedule Type Limits Name input -- will not be validated.\n   ** Warning ** ProcessScheduleInput: Schedule:Day:Interval=\"SCHEDULE DAY 19\", Blank Schedule Type Limits Name input -- will not be validated.\n   ** Warning ** ProcessScheduleInput: Schedule:Day:Interval=\"SCHEDULE DAY 2\", Blank Schedule Type Limits Name input -- will not be validated.\n   ** Warning ** ProcessScheduleInput: Schedule:Day:Interval=\"SCHEDULE DAY 20\", Blank Schedule Type Limits Name input -- will not be validated.\n   ** Warning ** ProcessScheduleInput: Schedule:Day:Interval=\"SCHEDULE DAY 21\", Blank Schedule Type Limits Name input -- will not be validated.\n   ** Warning ** ProcessScheduleInput: Schedule:Day:Interval=\"SCHEDULE DAY 22\", Blank Schedule Type Limits Name input -- will not be validated.\n   ** Warning ** ProcessScheduleInput: Schedule:Day:Interval=\"SCHEDULE DAY 23\", Blank Schedule Type Limits Name input -- will not be validated.\n   ** Warning ** ProcessScheduleInput: Schedule:Day:Interval=\"SCHEDULE DAY 24\", Blank Schedule Type Limits Name input -- will not be validated.\n   ** Warning ** ProcessScheduleInput: Schedule:Day:Interval=\"SCHEDULE DAY 25\", Blank Schedule Type Limits Name input -- will not be validated.\n   ** Warning ** ProcessScheduleInput: Schedule:Day:Interval=\"SCHEDULE DAY 26\", Blank Schedule Type Limits Name input -- will not be validated.\n   ** Warning ** ProcessScheduleInput: Schedule:Day:Interval=\"SCHEDULE DAY 27\", Blank Schedule Type Limits Name input -- will not be validated.\n   ** Warning ** ProcessScheduleInput: Schedule:Day:Interval=\"SCHEDULE DAY 28\", Blank Schedule Type Limits Name input -- will not be validated.\n   ** Warning ** ProcessScheduleInput: Schedule:Day:Interval=\"SCHEDULE DAY 29\", Blank Schedule Type Limits Name input -- will not be validated.\n   ** Warning ** ProcessScheduleInput: Schedule:Day:Interval=\"SCHEDULE DAY 30\", Blank Schedule Type Limits Name input -- will not be validated.\n   ** Warning ** ProcessScheduleInput: Schedule:Day:Interval=\"SCHEDULE DAY 31\", Blank Schedule Type Limits Name input -- will not be validated.\n   ** Warning ** ProcessScheduleInput: Schedule:Day:Interval=\"SCHEDULE DAY 32\", Blank Schedule Type Limits Name input -- will not be validated.\n   ** Warning ** ProcessScheduleInput: Schedule:Day:Interval=\"SCHEDULE DAY 33\", Blank Schedule Type Limits Name input -- will not be validated.\n   ** Warning ** ProcessScheduleInput: Schedule:Day:Interval=\"SCHEDULE DAY 34\", Blank Schedule Type Limits Name input -- will not be validated.\n   ** Warning ** ProcessScheduleInput: Schedule:Day:Interval=\"SCHEDULE DAY 35\", Blank Schedule Type Limits Name input -- will not be validated.\n   ** Warning ** ProcessScheduleInput: Schedule:Day:Interval=\"SCHEDULE DAY 36\", Blank Schedule Type Limits Name input -- will not be validated.\n   ** Warning ** ProcessScheduleInput: Schedule:Day:Interval=\"SCHEDULE DAY 37\", Blank Schedule Type Limits Name input -- will not be validated.\n   ** Warning ** ProcessScheduleInput: Schedule:Day:Interval=\"SCHEDULE DAY 38\", Blank Schedule Type Limits Name input -- will not be validated.\n   ** Warning ** ProcessScheduleInput: Schedule:Day:Interval=\"SCHEDULE DAY 39\", Blank Schedule Type Limits Name input -- will not be validated.\n   ** Warning ** ProcessScheduleInput: Schedule:Day:Interval=\"SCHEDULE DAY 40\", Blank Schedule Type Limits Name input -- will not be validated.\n   ** Warning ** ProcessScheduleInput: Schedule:Day:Interval=\"SCHEDULE DAY 41\", Blank Schedule Type Limits Name input -- will not be validated.\n   ** Warning ** ProcessScheduleInput: Schedule:Day:Interval=\"SCHEDULE DAY 42\", Blank Schedule Type Limits Name input -- will not be validated.\n   ** Warning ** ProcessScheduleInput: Schedule:Day:Interval=\"SCHEDULE DAY 43\", Blank Schedule Type Limits Name input -- will not be validated.\n   ** Warning ** ProcessScheduleInput: Schedule:Day:Interval=\"SCHEDULE DAY 44\", Blank Schedule Type Limits Name input -- will not be validated.\n   ** Warning ** ProcessScheduleInput: Schedule:Day:Interval=\"SCHEDULE DAY 45\", Blank Schedule Type Limits Name input -- will not be validated.\n   ** Warning ** ProcessScheduleInput: Schedule:Day:Interval=\"SCHEDULE DAY 46\", Blank Schedule Type Limits Name input -- will not be validated.\n   ** Warning ** ProcessScheduleInput: Schedule:Day:Interval=\"SCHEDULE DAY 47\", Blank Schedule Type Limits Name input -- will not be validated.\n   ** Warning ** ProcessScheduleInput: Schedule:Day:Interval=\"SCHEDULE DAY 48\", Blank Schedule Type Limits Name input -- will not be validated.\n   ** Warning ** ProcessScheduleInput: Schedule:Day:Interval=\"SCHEDULE DAY 49\", Blank Schedule Type Limits Name input -- will not be validated.\n   ** Warning ** ProcessScheduleInput: Schedule:Day:Interval=\"SCHEDULE DAY 50\", Blank Schedule Type Limits Name input -- will not be validated.\n   ** Warning ** ProcessScheduleInput: Schedule:Day:Interval=\"SCHEDULE DAY 51\", Blank Schedule Type Limits Name input -- will not be validated.\n   ** Warning ** ProcessScheduleInput: Schedule:Day:Interval=\"SCHEDULE DAY 52\", Blank Schedule Type Limits Name input -- will not be validated.\n   ** Warning ** ProcessScheduleInput: Schedule:Day:Interval=\"SCHEDULE DAY 53\", Blank Schedule Type Limits Name input -- will not be validated.\n   ** Warning ** ProcessScheduleInput: Schedule:Day:Interval=\"SCHEDULE DAY 54\", Blank Schedule Type Limits Name input -- will not be validated.\n   ** Warning ** ProcessScheduleInput: Schedule:Day:Interval=\"SCHEDULE DAY 55\", Blank Schedule Type Limits Name input -- will not be validated.\n   ** Warning ** ProcessScheduleInput: Schedule:Day:Interval=\"SCHEDULE DAY 56\", Blank Schedule Type Limits Name input -- will not be validated.\n   ** Warning ** ProcessScheduleInput: Schedule:Day:Interval=\"SCHEDULE DAY 57\", Blank Schedule Type Limits Name input -- will not be validated.\n   ** Warning ** ProcessScheduleInput: Schedule:Day:Interval=\"SCHEDULE DAY 58\", Blank Schedule Type Limits Name input -- will not be validated.\n   ** Warning ** ProcessScheduleInput: Schedule:Day:Interval=\"SCHEDULE DAY 59\", Blank Schedule Type Limits Name input -- will not be validated.\n   ** Warning ** ProcessScheduleInput: Schedule:Day:Interval=\"SCHEDULE DAY 60\", Blank Schedule Type Limits Name input -- will not be validated.\n   ** Warning ** ProcessScheduleInput: Schedule:Day:Interval=\"SCHEDULE DAY 61\", Blank Schedule Type Limits Name input -- will not be validated.\n   ** Warning ** ProcessScheduleInput: Schedule:Day:Interval=\"SCHEDULE DAY 62\", Blank Schedule Type Limits Name input -- will not be validated.\n   ** Warning ** ProcessScheduleInput: Schedule:Day:Interval=\"SCHEDULE DAY 63\", Blank Schedule Type Limits Name input -- will not be validated.\n   ** Warning ** ProcessScheduleInput: Schedule:Day:Interval=\"SCHEDULE DAY 64\", Blank Schedule Type Limits Name input -- will not be validated.\n   ** Warning ** ProcessScheduleInput: Schedule:Day:Interval=\"SCHEDULE DAY 65\", Blank Schedule Type Limits Name input -- will not be validated.\n   ** Warning ** ProcessScheduleInput: Schedule:Day:Interval=\"SCHEDULE DAY 66\", Blank Schedule Type Limits Name input -- will not be validated.\n   ** Warning ** ProcessScheduleInput: Schedule:Day:Interval=\"SCHEDULE DAY 67\", Blank Schedule Type Limits Name input -- will not be validated.\n   ** Warning ** ProcessScheduleInput: Schedule:Day:Interval=\"SCHEDULE DAY 68\", Blank Schedule Type Limits Name input -- will not be validated.\n   ** Warning ** ProcessScheduleInput: Schedule:Day:Interval=\"SCHEDULE DAY 69\", Blank Schedule Type Limits Name input -- will not be validated.\n   ** Warning ** ProcessScheduleInput: Schedule:Day:Interval=\"SCHEDULE DAY 7\", Blank Schedule Type Limits Name input -- will not be validated.\n   ** Warning ** ProcessScheduleInput: Schedule:Day:Interval=\"SCHEDULE DAY 70\", Blank Schedule Type Limits Name input -- will not be validated.\n   ** Warning ** ProcessScheduleInput: Schedule:Day:Interval=\"SCHEDULE DAY 71\", Blank Schedule Type Limits Name input -- will not be validated.\n   ** Warning ** ProcessScheduleInput: Schedule:Day:Interval=\"SCHEDULE DAY 72\", Blank Schedule Type Limits Name input -- will not be validated.\n   ** Warning ** ProcessScheduleInput: Schedule:Day:Interval=\"SCHEDULE DAY 73\", Blank Schedule Type Limits Name input -- will not be validated.\n   ** Warning ** ProcessScheduleInput: Schedule:Day:Interval=\"SCHEDULE DAY 8\", Blank Schedule Type Limits Name input -- will not be validated.\n   ** Warning ** ProcessScheduleInput: Schedule:Day:Interval=\"SCHEDULE DAY 9\", Blank Schedule Type Limits Name input -- will not be validated.\n   ** Warning ** ProcessScheduleInput: Schedule:Year=\"ECONOMIZER MAX OA FRACTION 100 PCT\", Blank Schedule Type Limits Name input -- will not be validated.\n   ** Warning ** ProcessScheduleInput: Schedule:Year=\"SCHEDULE RULESET 10\", Blank Schedule Type Limits Name input -- will not be validated.\n   ** Warning ** ProcessScheduleInput: Schedule:Year=\"SCHEDULE RULESET 11\", Blank Schedule Type Limits Name input -- will not be validated.\n   ** Warning ** ProcessScheduleInput: Schedule:Year=\"SCHEDULE RULESET 12\", Blank Schedule Type Limits Name input -- will not be validated.\n   ** Warning ** ProcessScheduleInput: Schedule:Year=\"SCHEDULE RULESET 13\", Blank Schedule Type Limits Name input -- will not be validated.\n   ** Warning ** ProcessScheduleInput: Schedule:Year=\"SCHEDULE RULESET 14\", Blank Schedule Type Limits Name input -- will not be validated.\n   ** Warning ** ProcessScheduleInput: Schedule:Year=\"SCHEDULE RULESET 15\", Blank Schedule Type Limits Name input -- will not be validated.\n   ** Warning ** ProcessScheduleInput: Schedule:Year=\"SCHEDULE RULESET 16\", Blank Schedule Type Limits Name input -- will not be validated.\n   ** Warning ** ProcessScheduleInput: Schedule:Year=\"SCHEDULE RULESET 17\", Blank Schedule Type Limits Name input -- will not be validated.\n   ** Warning ** ProcessScheduleInput: Schedule:Year=\"SCHEDULE RULESET 18\", Blank Schedule Type Limits Name input -- will not be validated.\n   ** Warning ** ProcessScheduleInput: Schedule:Year=\"SCHEDULE RULESET 19\", Blank Schedule Type Limits Name input -- will not be validated.\n   ** Warning ** ProcessScheduleInput: Schedule:Year=\"SCHEDULE RULESET 20\", Blank Schedule Type Limits Name input -- will not be validated.\n   ** Warning ** ProcessScheduleInput: Schedule:Year=\"SCHEDULE RULESET 21\", Blank Schedule Type Limits Name input -- will not be validated.\n   ** Warning ** ProcessScheduleInput: Schedule:Year=\"SCHEDULE RULESET 22\", Blank Schedule Type Limits Name input -- will not be validated.\n   ** Warning ** ProcessScheduleInput: Schedule:Year=\"SCHEDULE RULESET 23\", Blank Schedule Type Limits Name input -- will not be validated.\n   ** Warning ** ProcessScheduleInput: Schedule:Year=\"SCHEDULE RULESET 24\", Blank Schedule Type Limits Name input -- will not be validated.\n   ** Warning ** ProcessScheduleInput: Schedule:Year=\"SCHEDULE RULESET 25\", Blank Schedule Type Limits Name input -- will not be validated.\n   ** Warning ** ProcessScheduleInput: Schedule:Year=\"SCHEDULE RULESET 26\", Blank Schedule Type Limits Name input -- will not be validated.\n   ** Warning ** ProcessScheduleInput: Schedule:Year=\"SCHEDULE RULESET 27\", Blank Schedule Type Limits Name input -- will not be validated.\n   ** Warning ** ProcessScheduleInput: Schedule:Year=\"SCHEDULE RULESET 28\", Blank Schedule Type Limits Name input -- will not be validated.\n   ** Warning ** ProcessScheduleInput: Schedule:Year=\"SCHEDULE RULESET 29\", Blank Schedule Type Limits Name input -- will not be validated.\n   ** Warning ** ProcessScheduleInput: Schedule:Year=\"SCHEDULE RULESET 3\", Blank Schedule Type Limits Name input -- will not be validated.\n   ** Warning ** ProcessScheduleInput: Schedule:Year=\"SCHEDULE RULESET 30\", Blank Schedule Type Limits Name input -- will not be validated.\n   ** Warning ** ProcessScheduleInput: Schedule:Year=\"SCHEDULE RULESET 31\", Blank Schedule Type Limits Name input -- will not be validated.\n   ** Warning ** ProcessScheduleInput: Schedule:Year=\"SCHEDULE RULESET 32\", Blank Schedule Type Limits Name input -- will not be validated.\n   ** Warning ** ProcessScheduleInput: Schedule:Year=\"SCHEDULE RULESET 33\", Blank Schedule Type Limits Name input -- will not be validated.\n   ** Warning ** ProcessScheduleInput: Schedule:Year=\"SCHEDULE RULESET 34\", Blank Schedule Type Limits Name input -- will not be validated.\n   ** Warning ** ProcessScheduleInput: Schedule:Year=\"SCHEDULE RULESET 35\", Blank Schedule Type Limits Name input -- will not be validated.\n   ** Warning ** ProcessScheduleInput: Schedule:Year=\"SCHEDULE RULESET 36\", Blank Schedule Type Limits Name input -- will not be validated.\n   ** Warning ** ProcessScheduleInput: Schedule:Year=\"SCHEDULE RULESET 37\", Blank Schedule Type Limits Name input -- will not be validated.\n   ** Warning ** ProcessScheduleInput: Schedule:Year=\"SCHEDULE RULESET 38\", Blank Schedule Type Limits Name input -- will not be validated.\n   ** Warning ** ProcessScheduleInput: Schedule:Year=\"SCHEDULE RULESET 39\", Blank Schedule Type Limits Name input -- will not be validated.\n   ** Warning ** ProcessScheduleInput: Schedule:Year=\"SCHEDULE RULESET 4\", Blank Schedule Type Limits Name input -- will not be validated.\n   ** Warning ** ProcessScheduleInput: Schedule:Year=\"SCHEDULE RULESET 40\", Blank Schedule Type Limits Name input -- will not be validated.\n   ** Warning ** ProcessScheduleInput: Schedule:Year=\"SCHEDULE RULESET 41\", Blank Schedule Type Limits Name input -- will not be validated.\n   ** Warning ** ProcessScheduleInput: Schedule:Year=\"SCHEDULE RULESET 42\", Blank Schedule Type Limits Name input -- will not be validated.\n   ** Warning ** ProcessScheduleInput: Schedule:Year=\"SCHEDULE RULESET 43\", Blank Schedule Type Limits Name input -- will not be validated.\n   ** Warning ** ProcessScheduleInput: Schedule:Year=\"SCHEDULE RULESET 44\", Blank Schedule Type Limits Name input -- will not be validated.\n   ** Warning ** ProcessScheduleInput: Schedule:Year=\"SCHEDULE RULESET 45\", Blank Schedule Type Limits Name input -- will not be validated.\n   ** Warning ** ProcessScheduleInput: Schedule:Year=\"SCHEDULE RULESET 46\", Blank Schedule Type Limits Name input -- will not be validated.\n   ** Warning ** ProcessScheduleInput: Schedule:Year=\"SCHEDULE RULESET 47\", Blank Schedule Type Limits Name input -- will not be validated.\n   ** Warning ** ProcessScheduleInput: Schedule:Year=\"SCHEDULE RULESET 48\", Blank Schedule Type Limits Name input -- will not be validated.\n   ** Warning ** ProcessScheduleInput: Schedule:Year=\"SCHEDULE RULESET 49\", Blank Schedule Type Limits Name input -- will not be validated.\n   ** Warning ** ProcessScheduleInput: Schedule:Year=\"SCHEDULE RULESET 5\", Blank Schedule Type Limits Name input -- will not be validated.\n   ** Warning ** ProcessScheduleInput: Schedule:Year=\"SCHEDULE RULESET 50\", Blank Schedule Type Limits Name input -- will not be validated.\n   ** Warning ** ProcessScheduleInput: Schedule:Year=\"SCHEDULE RULESET 51\", Blank Schedule Type Limits Name input -- will not be validated.\n   ** Warning ** ProcessScheduleInput: Schedule:Year=\"SCHEDULE RULESET 52\", Blank Schedule Type Limits Name input -- will not be validated.\n   ** Warning ** ProcessScheduleInput: Schedule:Year=\"SCHEDULE RULESET 53\", Blank Schedule Type Limits Name input -- will not be validated.\n   ** Warning ** ProcessScheduleInput: Schedule:Year=\"SCHEDULE RULESET 54\", Blank Schedule Type Limits Name input -- will not be validated.\n   ** Warning ** ProcessScheduleInput: Schedule:Year=\"SCHEDULE RULESET 55\", Blank Schedule Type Limits Name input -- will not be validated.\n   ** Warning ** ProcessScheduleInput: Schedule:Year=\"SCHEDULE RULESET 56\", Blank Schedule Type Limits Name input -- will not be validated.\n   ** Warning ** ProcessScheduleInput: Schedule:Year=\"SCHEDULE RULESET 57\", Blank Schedule Type Limits Name input -- will not be validated.\n   ** Warning ** ProcessScheduleInput: Schedule:Year=\"SCHEDULE RULESET 58\", Blank Schedule Type Limits Name input -- will not be validated.\n   ** Warning ** ProcessScheduleInput: Schedule:Year=\"SCHEDULE RULESET 59\", Blank Schedule Type Limits Name input -- will not be validated.\n   ** Warning ** ProcessScheduleInput: Schedule:Year=\"SCHEDULE RULESET 6\", Blank Schedule Type Limits Name input -- will not be validated.\n   ** Warning ** ProcessScheduleInput: Schedule:Year=\"SCHEDULE RULESET 7\", Blank Schedule Type Limits Name input -- will not be validated.\n   ** Warning ** ProcessScheduleInput: Schedule:Year=\"SCHEDULE RULESET 8\", Blank Schedule Type Limits Name input -- will not be validated.\n   ** Warning ** ProcessScheduleInput: Schedule:Year=\"SCHEDULE RULESET 9\", Blank Schedule Type Limits Name input -- will not be validated.\n   ** Warning ** ProcessScheduleInput: Schedule:Constant=\"ALWAYS OFF DISCRETE\", Blank Schedule Type Limits Name input -- will not be validated.\n   ** Warning ** ProcessScheduleInput: Schedule:Constant=\"ALWAYS ON CONTINUOUS\", Blank Schedule Type Limits Name input -- will not be validated.\n   ** Warning ** CheckUsedConstructions: There are 28 nominally unused constructions in input.\n   **   ~~~   ** For explicit details on each unused construction, use Output:Diagnostics,DisplayExtraWarnings;\n   ** Warning ** GetInternalHeatGains: People Combination of ZoneList and Object Name generate a name too long.\n   **   ~~~   ** Object Name=\"SPACE FUNCTION ELECTRICAL/MECHANICAL ROOM-SCH-A PEOPLE\".\n   **   ~~~   ** ZoneList/Zone Name=\"WILD_ST=ELECTRICAL/MECHANICAL ROOM-SCH-A_FL=BASEMENT STORY 0_SCH=A\".\n   **   ~~~   ** Item length=[120] > Maximum Length=[100]. You may need to shorten the names.\n   **   ~~~   ** Shortening the Object Name by [21] characters will assure uniqueness for this ZoneList.\n   **   ~~~   ** name that will be used (may be needed in reporting)=\"WILD_ST=ELECTRICAL/MECHANICAL ROOM-SCH-A_FL=BASEMENT STORY 0_SCH=A SPACE FUNCTION ELECTRICAL/MECHANICAL ROOM-SCH-A PEOPLE\".\n   ** Warning ** GetInternalHeatGains: People=\"SPACE FUNCTION ELECTRICAL/MECHANICAL ROOM-SCH-A PEOPLE\" has comfort related schedules but no thermal comfort model selected.\n   **   ~~~   ** If schedules are specified for air velocity, clothing insulation, and/or work efficiency but no thermal comfort\n   **   ~~~   ** thermal comfort model is selected, the schedules will be listed as unused schedules in the .err file.\n   **   ~~~   ** To avoid these errors, select a valid thermal comfort model or eliminate these schedules in the PEOPLE input.\n   ** Warning ** GetInternalHeatGains: People=\"SPACE FUNCTION OFFICE OPEN PLAN PEOPLE\" has comfort related schedules but no thermal comfort model selected.\n   **   ~~~   ** If schedules are specified for air velocity, clothing insulation, and/or work efficiency but no thermal comfort\n   **   ~~~   ** thermal comfort model is selected, the schedules will be listed as unused schedules in the .err file.\n   **   ~~~   ** To avoid these errors, select a valid thermal comfort model or eliminate these schedules in the PEOPLE input.\n   ** Warning ** GetInternalHeatGains: People=\"SPACE FUNCTION OFFICE OPEN PLAN PEOPLE\" has comfort related schedules but no thermal comfort model selected.\n   **   ~~~   ** If schedules are specified for air velocity, clothing insulation, and/or work efficiency but no thermal comfort\n   **   ~~~   ** thermal comfort model is selected, the schedules will be listed as unused schedules in the .err file.\n   **   ~~~   ** To avoid these errors, select a valid thermal comfort model or eliminate these schedules in the PEOPLE input.\n   ** Warning ** GetInternalHeatGains: People=\"SPACE FUNCTION OFFICE OPEN PLAN PEOPLE\" has comfort related schedules but no thermal comfort model selected.\n   **   ~~~   ** If schedules are specified for air velocity, clothing insulation, and/or work efficiency but no thermal comfort\n   **   ~~~   ** thermal comfort model is selected, the schedules will be listed as unused schedules in the .err file.\n   **   ~~~   ** To avoid these errors, select a valid thermal comfort model or eliminate these schedules in the PEOPLE input.\n   ** Warning ** GetInternalHeatGains: People=\"SPACE FUNCTION OFFICE OPEN PLAN PEOPLE\" has comfort related schedules but no thermal comfort model selected.\n   **   ~~~   ** If schedules are specified for air velocity, clothing insulation, and/or work efficiency but no thermal comfort\n   **   ~~~   ** thermal comfort model is selected, the schedules will be listed as unused schedules in the .err file.\n   **   ~~~   ** To avoid these errors, select a valid thermal comfort model or eliminate these schedules in the PEOPLE input.\n   ** Warning ** GetInternalHeatGains: People=\"SPACE FUNCTION OFFICE OPEN PLAN PEOPLE\" has comfort related schedules but no thermal comfort model selected.\n   **   ~~~   ** If schedules are specified for air velocity, clothing insulation, and/or work efficiency but no thermal comfort\n   **   ~~~   ** thermal comfort model is selected, the schedules will be listed as unused schedules in the .err file.\n   **   ~~~   ** To avoid these errors, select a valid thermal comfort model or eliminate these schedules in the PEOPLE input.\n   ** Warning ** GetInternalHeatGains: People=\"SPACE FUNCTION OFFICE OPEN PLAN PEOPLE\" has comfort related schedules but no thermal comfort model selected.\n   **   ~~~   ** If schedules are specified for air velocity, clothing insulation, and/or work efficiency but no thermal comfort\n   **   ~~~   ** thermal comfort model is selected, the schedules will be listed as unused schedules in the .err file.\n   **   ~~~   ** To avoid these errors, select a valid thermal comfort model or eliminate these schedules in the PEOPLE input.\n   ** Warning ** GetInternalHeatGains: People=\"SPACE FUNCTION OFFICE OPEN PLAN PEOPLE\" has comfort related schedules but no thermal comfort model selected.\n   **   ~~~   ** If schedules are specified for air velocity, clothing insulation, and/or work efficiency but no thermal comfort\n   **   ~~~   ** thermal comfort model is selected, the schedules will be listed as unused schedules in the .err file.\n   **   ~~~   ** To avoid these errors, select a valid thermal comfort model or eliminate these schedules in the PEOPLE input.\n   ** Warning ** GetInternalHeatGains: People=\"SPACE FUNCTION OFFICE OPEN PLAN PEOPLE\" has comfort related schedules but no thermal comfort model selected.\n   **   ~~~   ** If schedules are specified for air velocity, clothing insulation, and/or work efficiency but no thermal comfort\n   **   ~~~   ** thermal comfort model is selected, the schedules will be listed as unused schedules in the .err file.\n   **   ~~~   ** To avoid these errors, select a valid thermal comfort model or eliminate these schedules in the PEOPLE input.\n   ** Warning ** GetInternalHeatGains: People=\"SPACE FUNCTION OFFICE OPEN PLAN PEOPLE\" has comfort related schedules but no thermal comfort model selected.\n   **   ~~~   ** If schedules are specified for air velocity, clothing insulation, and/or work efficiency but no thermal comfort\n   **   ~~~   ** thermal comfort model is selected, the schedules will be listed as unused schedules in the .err file.\n   **   ~~~   ** To avoid these errors, select a valid thermal comfort model or eliminate these schedules in the PEOPLE input.\n   ** Warning ** GetInternalHeatGains: People=\"SPACE FUNCTION OFFICE OPEN PLAN PEOPLE\" has comfort related schedules but no thermal comfort model selected.\n   **   ~~~   ** If schedules are specified for air velocity, clothing insulation, and/or work efficiency but no thermal comfort\n   **   ~~~   ** thermal comfort model is selected, the schedules will be listed as unused schedules in the .err file.\n   **   ~~~   ** To avoid these errors, select a valid thermal comfort model or eliminate these schedules in the PEOPLE input.\n   ** Warning ** GetInternalHeatGains: People=\"SPACE FUNCTION OFFICE OPEN PLAN PEOPLE\" has comfort related schedules but no thermal comfort model selected.\n   **   ~~~   ** If schedules are specified for air velocity, clothing insulation, and/or work efficiency but no thermal comfort\n   **   ~~~   ** thermal comfort model is selected, the schedules will be listed as unused schedules in the .err file.\n   **   ~~~   ** To avoid these errors, select a valid thermal comfort model or eliminate these schedules in the PEOPLE input.\n   ** Warning ** GetInternalHeatGains: People=\"SPACE FUNCTION OFFICE OPEN PLAN PEOPLE\" has comfort related schedules but no thermal comfort model selected.\n   **   ~~~   ** If schedules are specified for air velocity, clothing insulation, and/or work efficiency but no thermal comfort\n   **   ~~~   ** thermal comfort model is selected, the schedules will be listed as unused schedules in the .err file.\n   **   ~~~   ** To avoid these errors, select a valid thermal comfort model or eliminate these schedules in the PEOPLE input.\n   ** Warning ** GetInternalHeatGains: People=\"SPACE FUNCTION OFFICE OPEN PLAN PEOPLE\" has comfort related schedules but no thermal comfort model selected.\n   **   ~~~   ** If schedules are specified for air velocity, clothing insulation, and/or work efficiency but no thermal comfort\n   **   ~~~   ** thermal comfort model is selected, the schedules will be listed as unused schedules in the .err file.\n   **   ~~~   ** To avoid these errors, select a valid thermal comfort model or eliminate these schedules in the PEOPLE input.\n   ** Warning ** GetInternalHeatGains: People=\"SPACE FUNCTION OFFICE OPEN PLAN PEOPLE\" has comfort related schedules but no thermal comfort model selected.\n   **   ~~~   ** If schedules are specified for air velocity, clothing insulation, and/or work efficiency but no thermal comfort\n   **   ~~~   ** thermal comfort model is selected, the schedules will be listed as unused schedules in the .err file.\n   **   ~~~   ** To avoid these errors, select a valid thermal comfort model or eliminate these schedules in the PEOPLE input.\n   ** Warning ** GetInternalHeatGains: People=\"SPACE FUNCTION OFFICE OPEN PLAN PEOPLE\" has comfort related schedules but no thermal comfort model selected.\n   **   ~~~   ** If schedules are specified for air velocity, clothing insulation, and/or work efficiency but no thermal comfort\n   **   ~~~   ** thermal comfort model is selected, the schedules will be listed as unused schedules in the .err file.\n   **   ~~~   ** To avoid these errors, select a valid thermal comfort model or eliminate these schedules in the PEOPLE input.\n   ** Warning ** GetInternalHeatGains: People=\"SPACE FUNCTION OFFICE OPEN PLAN PEOPLE\" has comfort related schedules but no thermal comfort model selected.\n   **   ~~~   ** If schedules are specified for air velocity, clothing insulation, and/or work efficiency but no thermal comfort\n   **   ~~~   ** thermal comfort model is selected, the schedules will be listed as unused schedules in the .err file.\n   **   ~~~   ** To avoid these errors, select a valid thermal comfort model or eliminate these schedules in the PEOPLE input.\n   ** Warning ** GetInternalHeatGains: People=\"SPACE FUNCTION OFFICE OPEN PLAN PEOPLE\" has comfort related schedules but no thermal comfort model selected.\n   **   ~~~   ** If schedules are specified for air velocity, clothing insulation, and/or work efficiency but no thermal comfort\n   **   ~~~   ** thermal comfort model is selected, the schedules will be listed as unused schedules in the .err file.\n   **   ~~~   ** To avoid these errors, select a valid thermal comfort model or eliminate these schedules in the PEOPLE input.\n   ** Warning ** GetInternalHeatGains: People=\"SPACE FUNCTION OFFICE OPEN PLAN PEOPLE\" has comfort related schedules but no thermal comfort model selected.\n   **   ~~~   ** If schedules are specified for air velocity, clothing insulation, and/or work efficiency but no thermal comfort\n   **   ~~~   ** thermal comfort model is selected, the schedules will be listed as unused schedules in the .err file.\n   **   ~~~   ** To avoid these errors, select a valid thermal comfort model or eliminate these schedules in the PEOPLE input.\n   ** Warning ** GetInternalHeatGains: Lights Combination of ZoneList and Object Name generate a name too long.\n   **   ~~~   ** Object Name=\"SPACE FUNCTION ELECTRICAL/MECHANICAL ROOM-SCH-A LIGHTS\".\n   **   ~~~   ** ZoneList/Zone Name=\"WILD_ST=ELECTRICAL/MECHANICAL ROOM-SCH-A_FL=BASEMENT STORY 0_SCH=A\".\n   **   ~~~   ** Item length=[120] > Maximum Length=[100]. You may need to shorten the names.\n   **   ~~~   ** Shortening the Object Name by [21] characters will assure uniqueness for this ZoneList.\n   **   ~~~   ** name that will be used (may be needed in reporting)=\"WILD_ST=ELECTRICAL/MECHANICAL ROOM-SCH-A_FL=BASEMENT STORY 0_SCH=A SPACE FUNCTION ELECTRICAL/MECHANICAL ROOM-SCH-A LIGHTS\".\n   ** Warning ** GetInternalHeatGains: ElectricEquipment Combination of ZoneList and Object Name generate a name too long.\n   **   ~~~   ** Object Name=\"SPACE FUNCTION ELECTRICAL/MECHANICAL ROOM-SCH-A ELEC EQUIP\".\n   **   ~~~   ** ZoneList/Zone Name=\"WILD_ST=ELECTRICAL/MECHANICAL ROOM-SCH-A_FL=BASEMENT STORY 0_SCH=A\".\n   **   ~~~   ** Item length=[124] > Maximum Length=[100]. You may need to shorten the names.\n   **   ~~~   ** Shortening the Object Name by [25] characters will assure uniqueness for this ZoneList.\n   **   ~~~   ** name that will be used (may be needed in reporting)=\"WILD_ST=ELECTRICAL/MECHANICAL ROOM-SCH-A_FL=BASEMENT STORY 0_SCH=A SPACE FUNCTION ELECTRICAL/MECHANICAL ROOM-SCH-A ELEC EQUIP\".\n   ** Warning ** Calculated design heating load for zone=ALL_ST=OFFICE OPEN PLAN_FL=BASEMENT STORY 0_SCH=A is zero.\n   **   ~~~   ** Check Sizing:Zone and ZoneControl:Thermostat inputs.\n   ** Warning ** Calculated design heating load for zone=ALL_ST=OFFICE OPEN PLAN_FL=BUILDING STORY 1_SCH=A is zero.\n   **   ~~~   ** Check Sizing:Zone and ZoneControl:Thermostat inputs.\n   ** Warning ** Calculated design heating load for zone=ALL_ST=OFFICE OPEN PLAN_FL=BUILDING STORY 2_SCH=A is zero.\n   **   ~~~   ** Check Sizing:Zone and ZoneControl:Thermostat inputs.\n   ** Warning ** Calculated design heating load for zone=WILD_ST=ELECTRICAL/MECHANICAL ROOM-SCH-A_FL=BASEMENT STORY 0_SCH=A is zero.\n   **   ~~~   ** Check Sizing:Zone and ZoneControl:Thermostat inputs.\n   ************* Beginning System Sizing Calculations\n   ** Warning ** Since Zone Minimum Air Flow Input Method = CONSTANT, input for Fixed Minimum Air Flow Rate will be ignored.\n   **   ~~~   ** Occurs in AirTerminal:SingleDuct:VAV:Reheat = AIR TERMINAL SINGLE DUCT VAV REHEAT 1\n   ** Warning ** Since Zone Minimum Air Flow Input Method = CONSTANT, input for Fixed Minimum Air Flow Rate will be ignored.\n   **   ~~~   ** Occurs in AirTerminal:SingleDuct:VAV:Reheat = AIR TERMINAL SINGLE DUCT VAV REHEAT 2\n   ** Warning ** Since Damper Heating Action = NORMAL, input for Maximum Flow Fraction During Reheat will be ignored.\n   **   ~~~   ** Occurs in AirTerminal:SingleDuct:VAV:Reheat = AIR TERMINAL SINGLE DUCT VAV REHEAT 2\n   ** Warning ** Since Zone Minimum Air Flow Input Method = CONSTANT, input for Fixed Minimum Air Flow Rate will be ignored.\n   **   ~~~   ** Occurs in AirTerminal:SingleDuct:VAV:Reheat = AIR TERMINAL SINGLE DUCT VAV REHEAT 6\n   ** Warning ** Since Damper Heating Action = NORMAL, input for Maximum Flow Fraction During Reheat will be ignored.\n   **   ~~~   ** Occurs in AirTerminal:SingleDuct:VAV:Reheat = AIR TERMINAL SINGLE DUCT VAV REHEAT 6\n   ** Warning ** Since Zone Minimum Air Flow Input Method = CONSTANT, input for Fixed Minimum Air Flow Rate will be ignored.\n   **   ~~~   ** Occurs in AirTerminal:SingleDuct:VAV:Reheat = AIR TERMINAL SINGLE DUCT VAV REHEAT 4\n   ** Warning ** Since Damper Heating Action = NORMAL, input for Maximum Flow Fraction During Reheat will be ignored.\n   **   ~~~   ** Occurs in AirTerminal:SingleDuct:VAV:Reheat = AIR TERMINAL SINGLE DUCT VAV REHEAT 4\n   ** Warning ** Since Zone Minimum Air Flow Input Method = CONSTANT, input for Fixed Minimum Air Flow Rate will be ignored.\n   **   ~~~   ** Occurs in AirTerminal:SingleDuct:VAV:Reheat = AIR TERMINAL SINGLE DUCT VAV REHEAT 5\n   ** Warning ** Since Damper Heating Action = NORMAL, input for Maximum Flow Fraction During Reheat will be ignored.\n   **   ~~~   ** Occurs in AirTerminal:SingleDuct:VAV:Reheat = AIR TERMINAL SINGLE DUCT VAV REHEAT 5\n   ** Warning ** Since Zone Minimum Air Flow Input Method = CONSTANT, input for Fixed Minimum Air Flow Rate will be ignored.\n   **   ~~~   ** Occurs in AirTerminal:SingleDuct:VAV:Reheat = AIR TERMINAL SINGLE DUCT VAV REHEAT 3\n   ** Warning ** Since Damper Heating Action = NORMAL, input for Maximum Flow Fraction During Reheat will be ignored.\n   **   ~~~   ** Occurs in AirTerminal:SingleDuct:VAV:Reheat = AIR TERMINAL SINGLE DUCT VAV REHEAT 3\n   ** Warning ** Since Zone Minimum Air Flow Input Method = CONSTANT, input for Fixed Minimum Air Flow Rate will be ignored.\n   **   ~~~   ** Occurs in AirTerminal:SingleDuct:VAV:Reheat = AIR TERMINAL SINGLE DUCT VAV REHEAT 7\n   ** Warning ** Since Damper Heating Action = NORMAL, input for Maximum Flow Fraction During Reheat will be ignored.\n   **   ~~~   ** Occurs in AirTerminal:SingleDuct:VAV:Reheat = AIR TERMINAL SINGLE DUCT VAV REHEAT 7\n   ** Warning ** Since Zone Minimum Air Flow Input Method = CONSTANT, input for Fixed Minimum Air Flow Rate will be ignored.\n   **   ~~~   ** Occurs in AirTerminal:SingleDuct:VAV:Reheat = AIR TERMINAL SINGLE DUCT VAV REHEAT 8\n   ** Warning ** Since Damper Heating Action = NORMAL, input for Maximum Flow Fraction During Reheat will be ignored.\n   **   ~~~   ** Occurs in AirTerminal:SingleDuct:VAV:Reheat = AIR TERMINAL SINGLE DUCT VAV REHEAT 8\n   ** Warning ** Since Zone Minimum Air Flow Input Method = CONSTANT, input for Fixed Minimum Air Flow Rate will be ignored.\n   **   ~~~   ** Occurs in AirTerminal:SingleDuct:VAV:Reheat = AIR TERMINAL SINGLE DUCT VAV REHEAT 10\n   ** Warning ** Since Damper Heating Action = NORMAL, input for Maximum Flow Fraction During Reheat will be ignored.\n   **   ~~~   ** Occurs in AirTerminal:SingleDuct:VAV:Reheat = AIR TERMINAL SINGLE DUCT VAV REHEAT 10\n   ** Warning ** Since Zone Minimum Air Flow Input Method = CONSTANT, input for Fixed Minimum Air Flow Rate will be ignored.\n   **   ~~~   ** Occurs in AirTerminal:SingleDuct:VAV:Reheat = AIR TERMINAL SINGLE DUCT VAV REHEAT 9\n   ** Warning ** Since Damper Heating Action = NORMAL, input for Maximum Flow Fraction During Reheat will be ignored.\n   **   ~~~   ** Occurs in AirTerminal:SingleDuct:VAV:Reheat = AIR TERMINAL SINGLE DUCT VAV REHEAT 9\n   ** Warning ** Since Zone Minimum Air Flow Input Method = CONSTANT, input for Fixed Minimum Air Flow Rate will be ignored.\n   **   ~~~   ** Occurs in AirTerminal:SingleDuct:VAV:Reheat = AIR TERMINAL SINGLE DUCT VAV REHEAT 11\n   ** Warning ** Since Damper Heating Action = NORMAL, input for Maximum Flow Fraction During Reheat will be ignored.\n   **   ~~~   ** Occurs in AirTerminal:SingleDuct:VAV:Reheat = AIR TERMINAL SINGLE DUCT VAV REHEAT 11\n   ** Warning ** Since Zone Minimum Air Flow Input Method = CONSTANT, input for Fixed Minimum Air Flow Rate will be ignored.\n   **   ~~~   ** Occurs in AirTerminal:SingleDuct:VAV:Reheat = AIR TERMINAL SINGLE DUCT VAV REHEAT 12\n   ** Warning ** Since Damper Heating Action = NORMAL, input for Maximum Flow Fraction During Reheat will be ignored.\n   **   ~~~   ** Occurs in AirTerminal:SingleDuct:VAV:Reheat = AIR TERMINAL SINGLE DUCT VAV REHEAT 12\n   ** Warning ** Since Zone Minimum Air Flow Input Method = CONSTANT, input for Fixed Minimum Air Flow Rate will be ignored.\n   **   ~~~   ** Occurs in AirTerminal:SingleDuct:VAV:Reheat = AIR TERMINAL SINGLE DUCT VAV REHEAT 18\n   ** Warning ** Since Damper Heating Action = NORMAL, input for Maximum Flow Fraction During Reheat will be ignored.\n   **   ~~~   ** Occurs in AirTerminal:SingleDuct:VAV:Reheat = AIR TERMINAL SINGLE DUCT VAV REHEAT 18\n   ** Warning ** Since Zone Minimum Air Flow Input Method = CONSTANT, input for Fixed Minimum Air Flow Rate will be ignored.\n   **   ~~~   ** Occurs in AirTerminal:SingleDuct:VAV:Reheat = AIR TERMINAL SINGLE DUCT VAV REHEAT 14\n   ** Warning ** Since Damper Heating Action = NORMAL, input for Maximum Flow Fraction During Reheat will be ignored.\n   **   ~~~   ** Occurs in AirTerminal:SingleDuct:VAV:Reheat = AIR TERMINAL SINGLE DUCT VAV REHEAT 14\n   ** Warning ** Since Zone Minimum Air Flow Input Method = CONSTANT, input for Fixed Minimum Air Flow Rate will be ignored.\n   **   ~~~   ** Occurs in AirTerminal:SingleDuct:VAV:Reheat = AIR TERMINAL SINGLE DUCT VAV REHEAT 17\n   ** Warning ** Since Damper Heating Action = NORMAL, input for Maximum Flow Fraction During Reheat will be ignored.\n   **   ~~~   ** Occurs in AirTerminal:SingleDuct:VAV:Reheat = AIR TERMINAL SINGLE DUCT VAV REHEAT 17\n   ** Warning ** Since Zone Minimum Air Flow Input Method = CONSTANT, input for Fixed Minimum Air Flow Rate will be ignored.\n   **   ~~~   ** Occurs in AirTerminal:SingleDuct:VAV:Reheat = AIR TERMINAL SINGLE DUCT VAV REHEAT 13\n   ** Warning ** Since Damper Heating Action = NORMAL, input for Maximum Flow Fraction During Reheat will be ignored.\n   **   ~~~   ** Occurs in AirTerminal:SingleDuct:VAV:Reheat = AIR TERMINAL SINGLE DUCT VAV REHEAT 13\n   ** Warning ** Since Zone Minimum Air Flow Input Method = CONSTANT, input for Fixed Minimum Air Flow Rate will be ignored.\n   **   ~~~   ** Occurs in AirTerminal:SingleDuct:VAV:Reheat = AIR TERMINAL SINGLE DUCT VAV REHEAT 16\n   ** Warning ** Since Damper Heating Action = NORMAL, input for Maximum Flow Fraction During Reheat will be ignored.\n   **   ~~~   ** Occurs in AirTerminal:SingleDuct:VAV:Reheat = AIR TERMINAL SINGLE DUCT VAV REHEAT 16\n   ** Warning ** Since Zone Minimum Air Flow Input Method = CONSTANT, input for Fixed Minimum Air Flow Rate will be ignored.\n   **   ~~~   ** Occurs in AirTerminal:SingleDuct:VAV:Reheat = AIR TERMINAL SINGLE DUCT VAV REHEAT 15\n   ** Warning ** Since Damper Heating Action = NORMAL, input for Maximum Flow Fraction During Reheat will be ignored.\n   **   ~~~   ** Occurs in AirTerminal:SingleDuct:VAV:Reheat = AIR TERMINAL SINGLE DUCT VAV REHEAT 15\n   ************* Beginning Plant Sizing Calculations\n   ** Warning ** GetOAControllerInputs: Controller:MechanicalVentilation=\"CONTROLLER MECHANICAL VENTILATION 2\n   **   ~~~   ** Cannot locate a matching DesignSpecification:ZoneAirDistribution object for Zone=\"ALL_ST=OFFICE OPEN PLAN_FL=BASEMENT STORY 0_SCH=A\".\n   **   ~~~   ** Using default zone air distribution effectiveness of 1.0 for heating and cooling.\n   ** Warning ** GetOAControllerInputs: Controller:MechanicalVentilation=\"CONTROLLER MECHANICAL VENTILATION 3\n   **   ~~~   ** Cannot locate a matching DesignSpecification:ZoneAirDistribution object for Zone=\"ALL_ST=OFFICE OPEN PLAN_FL=BUILDING STORY 1_SCH=A\".\n   **   ~~~   ** Using default zone air distribution effectiveness of 1.0 for heating and cooling.\n   ** Warning ** GetOAControllerInputs: Controller:MechanicalVentilation=\"CONTROLLER MECHANICAL VENTILATION 3\n   **   ~~~   ** Cannot locate a matching DesignSpecification:ZoneAirDistribution object for Zone=\"ALL_ST=OFFICE OPEN PLAN_FL=BUILDING STORY 1_SCH=A 1\".\n   **   ~~~   ** Using default zone air distribution effectiveness of 1.0 for heating and cooling.\n   ** Warning ** GetOAControllerInputs: Controller:MechanicalVentilation=\"CONTROLLER MECHANICAL VENTILATION 3\n   **   ~~~   ** Cannot locate a matching DesignSpecification:ZoneAirDistribution object for Zone=\"ALL_ST=OFFICE OPEN PLAN_FL=BUILDING STORY 1_SCH=A 2\".\n   **   ~~~   ** Using default zone air distribution effectiveness of 1.0 for heating and cooling.\n   ** Warning ** GetOAControllerInputs: Controller:MechanicalVentilation=\"CONTROLLER MECHANICAL VENTILATION 3\n   **   ~~~   ** Cannot locate a matching DesignSpecification:ZoneAirDistribution object for Zone=\"ALL_ST=OFFICE OPEN PLAN_FL=BUILDING STORY 1_SCH=A 3\".\n   **   ~~~   ** Using default zone air distribution effectiveness of 1.0 for heating and cooling.\n   ** Warning ** GetOAControllerInputs: Controller:MechanicalVentilation=\"CONTROLLER MECHANICAL VENTILATION 3\n   **   ~~~   ** Cannot locate a matching DesignSpecification:ZoneAirDistribution object for Zone=\"ALL_ST=OFFICE OPEN PLAN_FL=BUILDING STORY 1_SCH=A 4\".\n   **   ~~~   ** Using default zone air distribution effectiveness of 1.0 for heating and cooling.\n   ** Warning ** GetOAControllerInputs: Controller:MechanicalVentilation=\"CONTROLLER MECHANICAL VENTILATION 4\n   **   ~~~   ** Cannot locate a matching DesignSpecification:ZoneAirDistribution object for Zone=\"ALL_ST=OFFICE OPEN PLAN_FL=BUILDING STORY 2_SCH=A\".\n   **   ~~~   ** Using default zone air distribution effectiveness of 1.0 for heating and cooling.\n   ** Warning ** GetOAControllerInputs: Controller:MechanicalVentilation=\"CONTROLLER MECHANICAL VENTILATION 4\n   **   ~~~   ** Cannot locate a matching DesignSpecification:ZoneAirDistribution object for Zone=\"ALL_ST=OFFICE OPEN PLAN_FL=BUILDING STORY 2_SCH=A 1\".\n   **   ~~~   ** Using default zone air distribution effectiveness of 1.0 for heating and cooling.\n   ** Warning ** GetOAControllerInputs: Controller:MechanicalVentilation=\"CONTROLLER MECHANICAL VENTILATION 4\n   **   ~~~   ** Cannot locate a matching DesignSpecification:ZoneAirDistribution object for Zone=\"ALL_ST=OFFICE OPEN PLAN_FL=BUILDING STORY 2_SCH=A 2\".\n   **   ~~~   ** Using default zone air distribution effectiveness of 1.0 for heating and cooling.\n   ** Warning ** GetOAControllerInputs: Controller:MechanicalVentilation=\"CONTROLLER MECHANICAL VENTILATION 4\n   **   ~~~   ** Cannot locate a matching DesignSpecification:ZoneAirDistribution object for Zone=\"ALL_ST=OFFICE OPEN PLAN_FL=BUILDING STORY 2_SCH=A 3\".\n   **   ~~~   ** Using default zone air distribution effectiveness of 1.0 for heating and cooling.\n   ** Warning ** GetOAControllerInputs: Controller:MechanicalVentilation=\"CONTROLLER MECHANICAL VENTILATION 4\n   **   ~~~   ** Cannot locate a matching DesignSpecification:ZoneAirDistribution object for Zone=\"ALL_ST=OFFICE OPEN PLAN_FL=BUILDING STORY 2_SCH=A 4\".\n   **   ~~~   ** Using default zone air distribution effectiveness of 1.0 for heating and cooling.\n   ** Warning ** GetOAControllerInputs: Controller:MechanicalVentilation=\"CONTROLLER MECHANICAL VENTILATION 4\n   **   ~~~   ** Cannot locate a matching DesignSpecification:ZoneAirDistribution object for Zone=\"ALL_ST=OFFICE OPEN PLAN_FL=BUILDING STORY 2_SCH=A 5\".\n   **   ~~~   ** Using default zone air distribution effectiveness of 1.0 for heating and cooling.\n   ** Warning ** GetOAControllerInputs: Controller:MechanicalVentilation=\"CONTROLLER MECHANICAL VENTILATION 5\n   **   ~~~   ** Cannot locate a matching DesignSpecification:ZoneAirDistribution object for Zone=\"ALL_ST=OFFICE OPEN PLAN_FL=BUILDING STORY 3_SCH=A\".\n   **   ~~~   ** Using default zone air distribution effectiveness of 1.0 for heating and cooling.\n   ** Warning ** GetOAControllerInputs: Controller:MechanicalVentilation=\"CONTROLLER MECHANICAL VENTILATION 5\n   **   ~~~   ** Cannot locate a matching DesignSpecification:ZoneAirDistribution object for Zone=\"ALL_ST=OFFICE OPEN PLAN_FL=BUILDING STORY 3_SCH=A 1\".\n   **   ~~~   ** Using default zone air distribution effectiveness of 1.0 for heating and cooling.\n   ** Warning ** GetOAControllerInputs: Controller:MechanicalVentilation=\"CONTROLLER MECHANICAL VENTILATION 5\n   **   ~~~   ** Cannot locate a matching DesignSpecification:ZoneAirDistribution object for Zone=\"ALL_ST=OFFICE OPEN PLAN_FL=BUILDING STORY 3_SCH=A 2\".\n   **   ~~~   ** Using default zone air distribution effectiveness of 1.0 for heating and cooling.\n   ** Warning ** GetOAControllerInputs: Controller:MechanicalVentilation=\"CONTROLLER MECHANICAL VENTILATION 5\n   **   ~~~   ** Cannot locate a matching DesignSpecification:ZoneAirDistribution object for Zone=\"ALL_ST=OFFICE OPEN PLAN_FL=BUILDING STORY 3_SCH=A 3\".\n   **   ~~~   ** Using default zone air distribution effectiveness of 1.0 for heating and cooling.\n   ** Warning ** GetOAControllerInputs: Controller:MechanicalVentilation=\"CONTROLLER MECHANICAL VENTILATION 5\n   **   ~~~   ** Cannot locate a matching DesignSpecification:ZoneAirDistribution object for Zone=\"ALL_ST=OFFICE OPEN PLAN_FL=BUILDING STORY 3_SCH=A 4\".\n   **   ~~~   ** Using default zone air distribution effectiveness of 1.0 for heating and cooling.\n   ** Warning ** GetOAControllerInputs: Controller:MechanicalVentilation=\"CONTROLLER MECHANICAL VENTILATION 5\n   **   ~~~   ** Cannot locate a matching DesignSpecification:ZoneAirDistribution object for Zone=\"ALL_ST=OFFICE OPEN PLAN_FL=BUILDING STORY 3_SCH=A 5\".\n   **   ~~~   ** Using default zone air distribution effectiveness of 1.0 for heating and cooling.\n   ** Warning ** GetOAControllerInputs: Controller:MechanicalVentilation=\"CONTROLLER MECHANICAL VENTILATION 1\n   **   ~~~   ** Cannot locate a matching DesignSpecification:ZoneAirDistribution object for Zone=\"WILD_ST=ELECTRICAL/MECHANICAL ROOM-SCH-A_FL=BASEMENT STORY 0_SCH=A\".\n   **   ~~~   ** Using default zone air distribution effectiveness of 1.0 for heating and cooling.\n   ** Warning ** GetDXCoils: Coil:Cooling:DX:SingleSpeed=\"COILCOOLINGDXSINGLESPEED_DX 76KBTU/HR 9.44EER\", invalid\n   **   ~~~   ** ...Part Load Fraction Correlation Curve Name = DXCOOL-NECB2011-REF-COOLPLFFPLR has out of range value.\n   **   ~~~   ** ...Curve maximum must be <= 1.0, curve max at PLR = 0.99 is 1.015\n   **   ~~~   ** ...Setting curve maximum to 1.0 and simulation continues.\n   ** Warning ** The Standard Ratings is calculated for Coil:Cooling:DX:SingleSpeed = COILCOOLINGDXSINGLESPEED_DX 76KBTU/HR 9.44EER but not at the AHRI test condition due to curve out of bound.\n   **   ~~~   **  Review the Standard Ratings calculations in the Engineering Reference for this coil type. Also, use Output:Diagnostics, DisplayExtraWarnings for further guidance.\n   ** Warning ** In calculating the design coil UA for Coil:Cooling:Water COIL COOLING WATER 3\n   **   ~~~   ** the coil bypass factor is unrealistically large;\n   **   ~~~   ** The initial design conditions are: Tair,in = 24.2589\n   **   ~~~   **                                    Wair,in = 8.857373E-003\n   **   ~~~   **                                    Twater,in = 7.0000\n   **   ~~~   **                                    Tair,out = 11.5182\n   **   ~~~   **                                    Wair,out = 8.500000E-003\n   ** Warning ** In calculating the design coil UA for Coil:Cooling:Water COIL COOLING WATER 1\n   **   ~~~   ** the coil bypass factor is unrealistically large;\n   **   ~~~   ** The initial design conditions are: Tair,in = 24.7013\n   **   ~~~   **                                    Wair,in = 9.118555E-003\n   **   ~~~   **                                    Twater,in = 7.0000\n   **   ~~~   **                                    Tair,out = 11.5190\n   **   ~~~   **                                    Wair,out = 8.500000E-003\n   ** Warning ** In calculating the design coil UA for Coil:Cooling:Water COIL COOLING WATER 2\n   **   ~~~   ** the coil bypass factor is unrealistically large;\n   **   ~~~   ** The initial design conditions are: Tair,in = 24.2215\n   **   ~~~   **                                    Wair,in = 8.923766E-003\n   **   ~~~   **                                    Twater,in = 7.0000\n   **   ~~~   **                                    Tair,out = 11.5184\n   **   ~~~   **                                    Wair,out = 8.500000E-003\n   ** Warning ** In calculating the design coil UA for Coil:Cooling:Water COIL COOLING WATER 4\n   **   ~~~   ** the coil bypass factor is unrealistically large;\n   **   ~~~   ** The initial design conditions are: Tair,in = 24.1629\n   **   ~~~   **                                    Wair,in = 8.856876E-003\n   **   ~~~   **                                    Twater,in = 7.0000\n   **   ~~~   **                                    Tair,out = 11.5182\n   **   ~~~   **                                    Wair,out = 8.500000E-003\n   ** Warning ** Missing temperature setpoint for LeavingSetpointModulated mode chiller named PRIMARY CHILLER WATERCOOLED SCROLL 577TONS 0.6KW/TON\n   **   ~~~   **   A temperature setpoint is needed at the outlet node of a chiller evaporator in variable flow mode\n   **   ~~~   **   use a Setpoint Manager to establish a setpoint at the chiller evaporator outlet node \n   **   ~~~   **   or use an EMS actuator to establish a setpoint at the outlet node \n   **   ~~~   **   The overall loop setpoint will be assumed for chiller. The simulation continues ... \n   ** Warning ** Missing temperature setpoint for LeavingSetpointModulated mode chiller named SECONDARY CHILLER WATERCOOLED SCROLL 0TONS 0.8KW/TON\n   **   ~~~   **   A temperature setpoint is needed at the outlet node of a chiller evaporator in variable flow mode\n   **   ~~~   **   use a Setpoint Manager to establish a setpoint at the chiller evaporator outlet node \n   **   ~~~   **   or use an EMS actuator to establish a setpoint at the outlet node \n   **   ~~~   **   The overall loop setpoint will be assumed for chiller. The simulation continues ... \n   ** Warning ** Error when autosizing the load for cooling tower = COOLING TOWER SINGLE SPEED 1. Tower Design Range Temperature is different from the Design Loop Delta Temperature.\n   **   ~~~   ** Tower Design Range Temperature specified in tower = COOLING TOWER SINGLE SPEED 1\n   **   ~~~   ** is inconsistent with Design Loop Delta Temperature specified in Sizing:Plant object = CONDENSER WATER LOOP.\n   **   ~~~   ** ..The Design Range Temperature specified in tower is = 5.00\n   **   ~~~   ** ..The Design Loop Delta Temperature specified in plant sizing data is = 6.00\n   ** Warning ** Error when autosizing the load for cooling tower = COOLING TOWER SINGLE SPEED 1. Tower Design Range Temperature is different from the Design Loop Delta Temperature.\n   **   ~~~   ** Tower Design Range Temperature specified in tower = COOLING TOWER SINGLE SPEED 1\n   **   ~~~   ** is inconsistent with Design Loop Delta Temperature specified in Sizing:Plant object = CONDENSER WATER LOOP.\n   **   ~~~   ** ..The Design Range Temperature specified in tower is = 5.00\n   **   ~~~   ** ..The Design Loop Delta Temperature specified in plant sizing data is = 6.00\n   ** Warning ** Error when autosizing the load for cooling tower = COOLING TOWER SINGLE SPEED 1. Tower Design Range Temperature is different from the Design Loop Delta Temperature.\n   **   ~~~   ** Tower Design Range Temperature specified in tower = COOLING TOWER SINGLE SPEED 1\n   **   ~~~   ** is inconsistent with Design Loop Delta Temperature specified in Sizing:Plant object = CONDENSER WATER LOOP.\n   **   ~~~   ** ..The Design Range Temperature specified in tower is = 5.00\n   **   ~~~   ** ..The Design Loop Delta Temperature specified in plant sizing data is = 6.00\n   ** Warning ** Error when autosizing the load for cooling tower = COOLING TOWER SINGLE SPEED 1. Tower Design Range Temperature is different from the Design Loop Delta Temperature.\n   **   ~~~   ** Tower Design Range Temperature specified in tower = COOLING TOWER SINGLE SPEED 1\n   **   ~~~   ** is inconsistent with Design Loop Delta Temperature specified in Sizing:Plant object = CONDENSER WATER LOOP.\n   **   ~~~   ** ..The Design Range Temperature specified in tower is = 5.00\n   **   ~~~   ** ..The Design Loop Delta Temperature specified in plant sizing data is = 6.00\n   ** Warning ** Error when autosizing the load for cooling tower = COOLING TOWER SINGLE SPEED 1. Tower Design Range Temperature is different from the Design Loop Delta Temperature.\n   **   ~~~   ** Tower Design Range Temperature specified in tower = COOLING TOWER SINGLE SPEED 1\n   **   ~~~   ** is inconsistent with Design Loop Delta Temperature specified in Sizing:Plant object = CONDENSER WATER LOOP.\n   **   ~~~   ** ..The Design Range Temperature specified in tower is = 5.00\n   **   ~~~   ** ..The Design Loop Delta Temperature specified in plant sizing data is = 6.00\n   ** Warning ** Error when autosizing the load for cooling tower = COOLING TOWER SINGLE SPEED 1. Tower Design Range Temperature is different from the Design Loop Delta Temperature.\n   **   ~~~   ** Tower Design Range Temperature specified in tower = COOLING TOWER SINGLE SPEED 1\n   **   ~~~   ** is inconsistent with Design Loop Delta Temperature specified in Sizing:Plant object = CONDENSER WATER LOOP.\n   **   ~~~   ** ..The Design Range Temperature specified in tower is = 5.00\n   **   ~~~   ** ..The Design Loop Delta Temperature specified in plant sizing data is = 6.00\n   ** Warning ** Output:Meter: invalid Key Name=\"NATURALGAS:FACILITY\" - not found.\n   ** Warning ** Output:Meter: invalid Key Name=\"NATURALGAS:FACILITY\" - not found.\n   ** Warning ** Output:Meter: invalid Key Name=\"GAS:FACILITY\" - not found.\n   ** Warning ** Output:Meter: invalid Key Name=\"DISTRICTCOOLING:FACILITY\" - not found.\n   ** Warning ** Output:Meter: invalid Key Name=\"DISTRICTHEATING:FACILITY\" - not found.\n   ** Warning ** Output:Meter:MeterFileOnly: invalid Key Name=\"GAS:FACILITY\" - not found.\n   ** Warning ** Output:Meter:MeterFileOnly requested for \"Electricity:Facility\" (TimeStep), already on \"Output:Meter\". Will report to both eplusout.eso and eplusout.mtr\n   ************* Testing Individual Branch Integrity\n   ************* All Branches passed integrity testing\n   ************* Testing Individual Supply Air Path Integrity\n   ************* All Supply Air Paths passed integrity testing\n   ************* Testing Individual Return Air Path Integrity\n   ************* All Return Air Paths passed integrity testing\n   ************* No node connection errors were found.\n   ************* Beginning Simulation\n   ** Warning ** Processing Monthly Tabular Reports: Variable names not valid for this simulation\n   **   ~~~   ** ...use Output:Diagnostics,DisplayExtraWarnings; to show more details on individual variables.\n   ** Warning ** HeatExchanger:AirToAir:SensibleAndLatent \"SYS_6|MIXED|SHR>NONE|SH>C-E|SC>C-CHW|SSF>VV|ZH>B-E|ZC>NONE|SRF>VV| 2 ERV\"\n   **   ~~~   ** Average air volume flow rate is <50% or >130% of the nominal HX supply air volume flow rate.\n   **   ~~~   ** Air volume flow rate ratio = 1.313. Environment=RUN PERIOD 1, at Simulation time=01/02 10:20 - 10:30\n   ** Warning ** SimHVAC: Maximum iterations (20) exceeded for all HVAC loops, at RUN PERIOD 1, 01/09 13:30 - 13:40\n   **   ~~~   ** The solution for one or more of the Air Loop HVAC systems did not appear to converge\n   **   ~~~   ** ...use Output:Diagnostics,DisplayExtraWarnings; to show more details on each max iteration exceeded.\n   ** Warning ** SimHVAC: Maximum iterations (20) exceeded for all HVAC loops, at RUN PERIOD 1, 01/18 18:30 - 18:40\n   **   ~~~   ** The solution for one or more of the Air Loop HVAC systems did not appear to converge\n   ** Warning ** SimHVAC: Maximum iterations (20) exceeded for all HVAC loops, at RUN PERIOD 1, 02/15 18:20 - 18:30\n   **   ~~~   ** The solution for one or more of the Air Loop HVAC systems did not appear to converge\n   ** Warning ** SimHVAC: Maximum iterations (20) exceeded for all HVAC loops, at RUN PERIOD 1, 02/17 18:00 - 18:05\n   **   ~~~   ** The solution for one or more of the Air Loop HVAC systems did not appear to converge\n   ** Warning ** SimHVAC: Maximum iterations (20) exceeded for all HVAC loops, at RUN PERIOD 1, 03/03 18:30 - 18:40\n   **   ~~~   ** The solution for one or more of the Air Loop HVAC systems did not appear to converge\n   ** Warning ** SimHVAC: Maximum iterations (20) exceeded for all HVAC loops, at RUN PERIOD 1, 03/03 18:40 - 18:50\n   **   ~~~   ** The solution for one or more of the Air Loop HVAC systems did not appear to converge\n   ** Warning ** SimHVAC: Maximum iterations (20) exceeded for all HVAC loops, at RUN PERIOD 1, 03/08 18:00 - 18:10\n   **   ~~~   ** The solution for one or more of the Air Loop HVAC systems did not appear to converge\n   ** Warning ** SimHVAC: Maximum iterations (20) exceeded for all HVAC loops, at RUN PERIOD 1, 03/10 18:00 - 18:05\n   **   ~~~   ** The solution for one or more of the Air Loop HVAC systems did not appear to converge\n   ** Warning ** SolveAirLoopControllers: Maximum iterations (50) exceeded for SYS_6|MIXED|SHR>ERV|SH>C-E|SC>C-CHW|SSF>VV|ZH>B-E|ZC>NONE|SRF>VV| 2, at RUN PERIOD 1, 05/16 06:30 - 06:40\n   ** Warning ** SolveAirLoopControllers: Maximum iterations (50) exceeded for SYS_6|MIXED|SHR>ERV|SH>C-E|SC>C-CHW|SSF>VV|ZH>B-E|ZC>NONE|SRF>VV| 2, at RUN PERIOD 1, 05/16 06:30 - 06:33\n   ** Warning ** SolveAirLoopControllers: Maximum iterations (50) exceeded for SYS_6|MIXED|SHR>ERV|SH>C-E|SC>C-CHW|SSF>VV|ZH>B-E|ZC>NONE|SRF>VV| 2, at RUN PERIOD 1, 05/16 07:20 - 07:21\n   ** Warning ** SolveAirLoopControllers: Maximum iterations (50) exceeded for SYS_6|MIXED|SHR>ERV|SH>C-E|SC>C-CHW|SSF>VV|ZH>B-E|ZC>NONE|SRF>VV| 2, at RUN PERIOD 1, 06/20 08:00 - 08:10\n   ** Warning ** SolveAirLoopControllers: Maximum iterations (50) exceeded for SYS_6|MIXED|SHR>ERV|SH>C-E|SC>C-CHW|SSF>VV|ZH>B-E|ZC>NONE|SRF>VV| 2, at RUN PERIOD 1, 06/20 08:00 - 08:10\n   ** Warning ** SolveAirLoopControllers: Maximum iterations (50) exceeded for SYS_6|MIXED|SHR>ERV|SH>C-E|SC>C-CHW|SSF>VV|ZH>B-E|ZC>NONE|SRF>VV| 2, at RUN PERIOD 1, 06/20 08:00 - 08:10\n   ** Warning ** SimHVAC: Maximum iterations (20) exceeded for all HVAC loops, at RUN PERIOD 1, 11/23 18:00 - 18:05\n   **   ~~~   ** The solution for one or more of the Air Loop HVAC systems did not appear to converge\n   ** Warning ** SimHVAC: Maximum iterations (20) exceeded for all HVAC loops, at RUN PERIOD 1, 11/24 18:00 - 18:05\n   **   ~~~   ** The solution for one or more of the Air Loop HVAC systems did not appear to converge\n   ** Warning ** SimHVAC: Maximum iterations (20) exceeded for all HVAC loops, at RUN PERIOD 1, 11/29 08:00 - 08:10\n   **   ~~~   ** The solution for one or more of the Air Loop HVAC systems did not appear to converge\n   ** Warning ** SimHVAC: Maximum iterations (20) exceeded for all HVAC loops, at RUN PERIOD 1, 12/07 18:20 - 18:30\n   **   ~~~   ** The solution for one or more of the Air Loop HVAC systems did not appear to converge\n   ** Warning ** SimHVAC: Maximum iterations (20) exceeded for all HVAC loops, at RUN PERIOD 1, 12/08 18:20 - 18:30\n   **   ~~~   ** The solution for one or more of the Air Loop HVAC systems did not appear to converge\n   ** Warning ** SimHVAC: Maximum iterations (20) exceeded for all HVAC loops, at RUN PERIOD 1, 12/08 18:30 - 18:40\n   **   ~~~   ** The solution for one or more of the Air Loop HVAC systems did not appear to converge\n   ** Warning ** The resource referenced by LifeCycleCost:UsePriceEscalation= \"U.S. AVG  COMMERCIAL-ELECTRICITY\" has no energy cost. \n   **   ~~~   ** ... It is likely that the wrong resource is used. The resource should match the meter used in Utility:Tariff.\n   ** Warning ** The resource referenced by LifeCycleCost:UsePriceEscalation= \"U.S. AVG  COMMERCIAL-DISTILLATE OIL\" has no energy cost. \n   **   ~~~   ** ... It is likely that the wrong resource is used. The resource should match the meter used in Utility:Tariff.\n   ** Warning ** The resource referenced by LifeCycleCost:UsePriceEscalation= \"U.S. AVG  COMMERCIAL-RESIDUAL OIL\" has no energy cost. \n   **   ~~~   ** ... It is likely that the wrong resource is used. The resource should match the meter used in Utility:Tariff.\n   ** Warning ** The resource referenced by LifeCycleCost:UsePriceEscalation= \"U.S. AVG  COMMERCIAL-NATURAL GAS\" has no energy cost. \n   **   ~~~   ** ... It is likely that the wrong resource is used. The resource should match the meter used in Utility:Tariff.\n   ** Warning ** The resource referenced by LifeCycleCost:UsePriceEscalation= \"U.S. AVG  COMMERCIAL-COAL\" has no energy cost. \n   **   ~~~   ** ... It is likely that the wrong resource is used. The resource should match the meter used in Utility:Tariff.\n   ************* Simulation Error Summary *************\n   ************* There are 9 unused schedules in input.\n   ************* There are 9 unused week schedules in input.\n   ************* There are 28 unused day schedules in input.\n   ************* Use Output:Diagnostics,DisplayUnusedSchedules; to see them.\n   *************\n   ************* ===== Recurring Error Summary =====\n   ************* The following recurring error messages occurred.\n   *************\n   *************  ** Warning ** HeatExchanger:AirToAir:SensibleAndLatent \"SYS_6|MIXED|SHR>NONE|SH>C-E|SC>C-CHW|SSF>VV|ZH>B-E|ZC>NONE|SRF>VV| 2 ERV\":  Average air volume flow rate is <50% or >130% warning continues. Air flow rate ratio statistics follow.\n   *************  **   ~~~   **   This error occurred 29348 total times;\n   *************  **   ~~~   **   during Warmup 0 times;\n   *************  **   ~~~   **   during Sizing 0 times.\n   *************  **   ~~~   **   Max=1.76776  Min=1.300007\n   *************\n   *************  ** Warning ** SimHVAC: Exceeding Maximum iterations for all HVAC loops, during RUN PERIOD 1 continues\n   *************  **   ~~~   **   This error occurred 2 total times;\n   *************  **   ~~~   **   during Warmup 0 times;\n   *************  **   ~~~   **   during Sizing 0 times.\n   *************\n   *************\n   ************* ===== Final Error Summary =====\n   ************* The following error categories occurred.  Consider correcting or noting.\n   ************* Nominally Unused Constructions\n   ************* ..The nominally unused constructions warning is provided to alert you to potential conditions that can cause\n   ************* ..extra time during simulation. Each construction is calculated by the algorithm indicated in the HeatBalanceAlgorithm\n   ************* ..object. You may remove the constructions indicated (when you use the DisplayExtraWarnings option).\n   *************\n   ************* EnergyPlus Warmup Error Summary. During Warmup: 0 Warning; 0 Severe Errors.\n   ************* EnergyPlus Sizing Error Summary. During Sizing: 192 Warning; 0 Severe Errors.\n   ************* EnergyPlus Completed Successfully-- 29609 Warning; 0 Severe Errors; Elapsed Time=00hr 01min 30.73sec\n",
  "file_format_version": "0.0.1",
  "file_paths": [
    "/mnt/openstudio/analysis_d904aff1-dbdd-41a2-aced-0d4c12834994/data_point_33a76811-ab22-4716-a683-f0300fb16e61/generated_files",
    "../weather",
    "../seeds",
    "../seed",
    "./files",
    "./weather",
    "../../files",
    "../../weather",
    "./"
  ],
  "hash": "1EB99A7C",
  "measure_paths": [
    "../measures"
  ],
  "name": "LargeOffice",
  "osa_id": "d904aff1-dbdd-41a2-aced-0d4c12834994",
  "osd_id": "33a76811-ab22-4716-a683-f0300fb16e61",
  "run_directory": "./run",
  "seed_file": "EmptyModel.osm",
  "started_at": "20211224T151804Z",
  "steps": [
    {
      "arguments": {
        "building_type": "LargeOffice",
        "epw_file": "BC_Victoria",
        "sideload": false,
        "template": "NECB2017"
      },
      "description": "This measure creates an NECB prototype building from scratch and uses it as the base for an analysis.",
      "measure_dir_name": "nrc_create_necb_prototype_building",
      "name": "nrc_create_necb_prototype_building",
      "result": {
        "completed_at": "20211224T151906Z",
        "measure_class_name": "NrcCreateNECBPrototypeBuilding",
        "measure_display_name": "NrcCreateNECBPrototypeBuilding",
        "measure_name": "nrc_create_necb_prototype_building",
        "measure_taxonomy": "Whole Building.Space Types",
        "measure_type": "ModelMeasure",
        "measure_uid": "3e9acd53-8602-4749-a655-7cbbe48e8b30",
        "measure_version_id": "4f33ab2f-0b19-4860-8ada-ac0f5a5dcf17",
        "measure_version_modified": "20211224T141224Z",
        "measure_xml_checksum": "2C38F48B",
        "started_at": "20211224T151810Z",
        "stderr": "",
        "stdout": "",
        "step_errors": [],
        "step_files": [],
        "step_info": [
          "Using OpenStudio Standards version 0.2.15 with template NECB2017.",
          "Started adding weather file for climate zone: NECB HDD Method.",
          "Added Victoria Intl AP Ann Clg .4% Condns DB=>MWB design day.",
          "Added Victoria Intl AP Ann Htg 99.6% Condns DB design day.",
          "Loaded space type map from model",
          "Finished adding geometry",
          "Found multipliers for space {\"Core_mid\"=>10, \"DataCenter_mid_ZN_6\"=>10, \"MidFloor_Plenum\"=>10, \"Perimeter_mid_ZN_1\"=>10, \"Perimeter_mid_ZN_2\"=>10, \"Perimeter_mid_ZN_3\"=>10, \"Perimeter_mid_ZN_4\"=>10}",
          "Using OpenStudio Standards version 0.2.15 with template NECB2017.",
          "Using OpenStudio Standards version 0.2.15 with template NECB2011.",
          "Started applying space types (loads)",
          "Space Function - undefined - had no ventilation specification, one has been created.",
          "Space Function - undefined - had no infiltration objects, one has been created.",
          "Space Function - undefined - set infiltration to 0.0 per ft^2 exterior surface area.",
          "Space Function - undefined - set infiltration schedule to Always On.",
          "Space Function Electrical/Mechanical room-sch-A had no people, one has been created.",
          "Space Function Electrical/Mechanical room-sch-A set occupancy to 0.4646840148698885 people/1000 ft^2.",
          "Space Function Electrical/Mechanical room-sch-A had no lights, one has been created.",
          "Space Function Electrical/Mechanical room-sch-A set LPD to 0.4275092936802974 W/ft^2.",
          "Space Function Electrical/Mechanical room-sch-A had no electric equipment, one has been created.",
          "Space Function Electrical/Mechanical room-sch-A set electric EPD to 0.0929368029739777 W/ft^2.",
          "Space Function Electrical/Mechanical room-sch-A had no ventilation specification, one has been created.",
          "Space Function Electrical/Mechanical room-sch-A set ventilation per area to 0.05 cfm/ft^2.",
          "Space Function Electrical/Mechanical room-sch-A had no infiltration objects, one has been created.",
          "Space Function Electrical/Mechanical room-sch-A set infiltration to 0.0 per ft^2 exterior surface area.",
          "Space Function Electrical/Mechanical room-sch-A set occupancy schedule to NECB-A-Occupancy.",
          "Space Function Electrical/Mechanical room-sch-A set occupant activity schedule to NECB-Activity.",
          "Space Function Electrical/Mechanical room-sch-A set lighting schedule to NECB-A-Lighting.",
          "Space Function Electrical/Mechanical room-sch-A set electric equipment schedule to NECB-A-Electric-Equipment.",
          "Space Function Electrical/Mechanical room-sch-A set infiltration schedule to Always On.",
          "Space Function Electrical/Mechanical room-sch-A set heating setpoint schedule to NECB-A-Thermostat Setpoint-Heating.",
          "Space Function Electrical/Mechanical room-sch-A set cooling setpoint schedule to NECB-A-Thermostat Setpoint-Cooling.",
          "Space Function Office open plan had no people, one has been created.",
          "Space Function Office open plan set occupancy to 4.646840148698885 people/1000 ft^2.",
          "Space Function Office open plan had no lights, one has been created.",
          "Space Function Office open plan set LPD to 0.80825 W/ft^2.",
          "Space Function Office open plan had no electric equipment, one has been created.",
          "Space Function Office open plan set electric EPD to 0.6970260223048327 W/ft^2.",
          "Space Function Office open plan had no ventilation specification, one has been created.",
          "Space Function Office open plan set ventilation per person to 30.127999999999997 cfm/person.",
          "Space Function Office open plan had no infiltration objects, one has been created.",
          "Space Function Office open plan set infiltration to 0.0 per ft^2 exterior surface area.",
          "Space Function Office open plan set occupancy schedule to NECB-A-Occupancy.",
          "Space Function Office open plan set occupant activity schedule to NECB-Activity.",
          "Space Function Office open plan set lighting schedule to OS:Schedule:Ruleset,\n  {b14c7840-dfbe-43a3-aedf-2ad72e9b12de}, !- Handle\n  NECB-A-Occupancy-NECB-A-Lighting-0.2-0.1-0.67-Light Ruleset, !- Name\n  {bc753aa0-a523-4c1d-826a-20ff90770401}, !- Schedule Type Limits Name\n  {0cf3a088-c009-44a1-b912-103447da441d}; !- Default Day Schedule Name\n\n.",
          "Space Function Office open plan set electric equipment schedule to NECB-A-Electric-Equipment.",
          "Space Function Office open plan set infiltration schedule to Always On.",
          "Space Function Office open plan set heating setpoint schedule to NECB-A-Thermostat Setpoint-Heating.",
          "Space Function Office open plan set cooling setpoint schedule to NECB-A-Thermostat Setpoint-Cooling.",
          "Finished applying space types (loads)",
          "Finished adding geometry",
          "Found multipliers for space {\"Core_mid\"=>10, \"DataCenter_mid_ZN_6\"=>10, \"MidFloor_Plenum\"=>10, \"Perimeter_mid_ZN_1\"=>10, \"Perimeter_mid_ZN_2\"=>10, \"Perimeter_mid_ZN_3\"=>10, \"Perimeter_mid_ZN_4\"=>10}",
          "For NECB2017, no exterior wall area was found, no infiltration will be added.",
          "For NECB2017, no exterior wall area was found, no infiltration will be added.",
          "For NECB2017, no exterior wall area was found, no infiltration will be added.",
          "For NECB2017, no exterior wall area was found, no infiltration will be added.",
          "For NECB2017, no exterior wall area was found, no infiltration will be added.",
          "For NECB2017, no exterior wall area was found, no infiltration will be added.",
          "For NECB2017, no exterior wall area was found, no infiltration will be added.",
          "For NECB2017, no exterior wall area was found, no infiltration will be added.",
          "Started applying constructions",
          "Finished applying constructions",
          "Started creating thermal zones",
          "Finished creating thermal zones",
          "This building has no exposed ceilings adjacent to spaces that are not attics or plenums.  No skylights will be added.",
          "Finished adding geometry",
          "Found multipliers for space {\"Core_mid\"=>10, \"DataCenter_mid_ZN_6\"=>10, \"MidFloor_Plenum\"=>10, \"Perimeter_mid_ZN_1\"=>10, \"Perimeter_mid_ZN_2\"=>10, \"Perimeter_mid_ZN_3\"=>10, \"Perimeter_mid_ZN_4\"=>10}",
          "Using OpenStudio Standards version 0.2.15 with template NECB2017.",
          "Started creating thermal zones",
          "Finished creating thermal zones",
          "Running simulation /mnt/openstudio/analysis_d904aff1-dbdd-41a2-aced-0d4c12834994/data_point_33a76811-ab22-4716-a683-f0300fb16e61/run/000_nrc_create_necb_prototype_building/autozone.",
          "Finished run.",
          "Finished adding geometry",
          "Found multipliers for space {\"Core_mid\"=>10, \"DataCenter_mid_ZN_6\"=>10, \"MidFloor_Plenum\"=>10, \"Perimeter_mid_ZN_1\"=>10, \"Perimeter_mid_ZN_2\"=>10, \"Perimeter_mid_ZN_3\"=>10, \"Perimeter_mid_ZN_4\"=>10}",
          "Using OpenStudio Standards version 0.2.15 with template NECB2017.",
          "Running simulation /mnt/openstudio/analysis_d904aff1-dbdd-41a2-aced-0d4c12834994/data_point_33a76811-ab22-4716-a683-f0300fb16e61/run/000_nrc_create_necb_prototype_building/autozone_systems.",
          "Finished run.",
          "Started Adding Service Water Heating",
          "Added water heater called 1089gal Electricity Water Heater - 735kBtu/hr",
          "Added circulating SWH loop called Main Service Water Loop",
          "Finished adding Service Water Heating",
          "Set sizing factors to 1.3 for heating and 1.3 for cooling.",
          "Finished adding geometry",
          "Found multipliers for space {\"Core_mid\"=>10, \"DataCenter_mid_ZN_6\"=>10, \"MidFloor_Plenum\"=>10, \"Perimeter_mid_ZN_1\"=>10, \"Perimeter_mid_ZN_2\"=>10, \"Perimeter_mid_ZN_3\"=>10, \"Perimeter_mid_ZN_4\"=>10}",
          "Running simulation /mnt/openstudio/analysis_d904aff1-dbdd-41a2-aced-0d4c12834994/data_point_33a76811-ab22-4716-a683-f0300fb16e61/run/000_nrc_create_necb_prototype_building/plant_loops.",
          "Finished run.",
          "Started applying prototype HVAC assumptions.",
          "For Fan Constant Volume 1: allowed_hp = 1.95HP; motor eff = 61.5%; total fan eff = 40% based on 2845 cfm.",
          "For Sys6 Return Fan: allowed_hp = 1.01HP; motor eff = 46.15%; total fan eff = 30% based on 2158 cfm.",
          "For Sys6 Return Fan 1: allowed_hp = 4.73HP; motor eff = 46.15%; total fan eff = 30% based on 17703 cfm.",
          "For Sys6 Return Fan 2: allowed_hp = 57.98HP; motor eff = 46.15%; total fan eff = 30% based on 216976 cfm.",
          "For Sys6 Return Fan 3: allowed_hp = 5.92HP; motor eff = 46.15%; total fan eff = 30% based on 22160 cfm.",
          "For Sys6 Supply Fan: allowed_hp = 2.31HP; motor eff = 84.61%; total fan eff = 55% based on 2158 cfm.",
          "For Sys6 Supply Fan 1: allowed_hp = 18.92HP; motor eff = 84.61%; total fan eff = 55% based on 17703 cfm.",
          "For Sys6 Supply Fan 2: allowed_hp = 231.93HP; motor eff = 84.61%; total fan eff = 55% based on 216976 cfm.",
          "For Sys6 Supply Fan 3: allowed_hp = 23.69HP; motor eff = 84.61%; total fan eff = 55% based on 22160 cfm.",
          "sys_4|mixed|shr>none|sc>dx|sh>c-e|ssf>cv|zh>b-e|zc>none|srf>none| requires an economizer because the total cooling capacity of 75839 Btu/hr exceeds the minimum capacity of 68243 Btu/hr.",
          "sys_6|mixed|shr>none|sh>c-e|sc>c-chw|ssf>vv|zh>b-e|zc>none|srf>vv| does not require an economizer because the total cooling capacity of 62297 Btu/hr is less than the minimum capacity of 68243 Btu/hr.",
          "sys_6|mixed|shr>none|sh>c-e|sc>c-chw|ssf>vv|zh>b-e|zc>none|srf>vv| 1 requires an economizer because the 'Design Supply Air Flow Rate' of 8354.994878953317 L/s exceeds the minimum air flow rate of 1500 L/s.",
          "sys_6|mixed|shr>none|sh>c-e|sc>c-chw|ssf>vv|zh>b-e|zc>none|srf>vv| 1 requires an economizer because the total cooling capacity of 477299 Btu/hr exceeds the minimum capacity of 68243 Btu/hr.",
          "sys_6|mixed|shr>none|sh>c-e|sc>c-chw|ssf>vv|zh>b-e|zc>none|srf>vv| 2 requires an economizer because the 'Design Supply Air Flow Rate' of 102401.2277086223 L/s exceeds the minimum air flow rate of 1500 L/s.",
          "sys_6|mixed|shr>none|sh>c-e|sc>c-chw|ssf>vv|zh>b-e|zc>none|srf>vv| 2 requires an economizer because the total cooling capacity of 5794259 Btu/hr exceeds the minimum capacity of 68243 Btu/hr.",
          "sys_6|mixed|shr>none|sh>c-e|sc>c-chw|ssf>vv|zh>b-e|zc>none|srf>vv| 3 requires an economizer because the 'Design Supply Air Flow Rate' of 10458.15556833235 L/s exceeds the minimum air flow rate of 1500 L/s.",
          "sys_6|mixed|shr>none|sh>c-e|sc>c-chw|ssf>vv|zh>b-e|zc>none|srf>vv| 3 requires an economizer because the total cooling capacity of 587570 Btu/hr exceeds the minimum capacity of 68243 Btu/hr.",
          "Finished applying prototype HVAC assumptions.",
          "Started applying HVAC efficiency standards for NECB2017 template.",
          "For sys_4|mixed|shr>none|sc>dx|sh>c-e|ssf>cv|zh>b-e|zc>none|srf>none|: Annual occupied hours = 2860 hr/yr, assuming a 0.15 occupancy threshold.  This schedule will be used as the HVAC operation schedule.",
          "For NECB2017 NECB HDD Method:  sys_4|mixed|shr>none|sc>dx|sh>c-e|ssf>cv|zh>b-e|zc>none|srf>none|: DCV is not required for any system.",
          "For sys_4|mixed|shr>none|sc>dx|sh>c-e|ssf>cv|zh>b-e|zc>none|srf>none|: Because the system has an economizer, it requires a motorized OA damper.",
          "For sys_4|mixed|shr>none|sc>dx|sh>c-e|ssf>cv|zh>b-e|zc>none|srf>none|: Setting motorized OA damper schedule to sys_4|mixed|shr>none|sc>dx|sh>c-e|ssf>cv|zh>b-e|zc>none|srf>none| Occ Sch.",
          "For sys_4|mixed|shr>none|sc>dx|sh>c-e|ssf>cv|zh>b-e|zc>none|srf>none|: Optimum start is not required since design flow rate of 2845 cfm is below the limit of 10000 cfm.",
          "For sys_4|mixed|shr>none|sc>dx|sh>c-e|ssf>cv|zh>b-e|zc>none|srf>none|: No special economizer controls were modeled.",
          "For sys_6|mixed|shr>none|sh>c-e|sc>c-chw|ssf>vv|zh>b-e|zc>none|srf>vv|: Annual occupied hours = 2860 hr/yr, assuming a 0.15 occupancy threshold.  This schedule will be used as the HVAC operation schedule.",
          "For NECB2017 NECB HDD Method:  sys_6|mixed|shr>none|sh>c-e|sc>c-chw|ssf>vv|zh>b-e|zc>none|srf>vv|: DCV is not required for any system.",
          "For sys_6|mixed|shr>none|sh>c-e|sc>c-chw|ssf>vv|zh>b-e|zc>none|srf>vv|: Motorized OA damper is required because the building has 4 stories which is greater than or equal to the minimum of 0 stories for climate zone NECB HDD Method, and the system OA intake of 1181 cfm is greater than or equal to the minimum threshold of 0 cfm.",
          "For sys_6|mixed|shr>none|sh>c-e|sc>c-chw|ssf>vv|zh>b-e|zc>none|srf>vv|: Setting motorized OA damper schedule to sys_6|mixed|shr>none|sh>c-e|sc>c-chw|ssf>vv|zh>b-e|zc>none|srf>vv| Occ Sch.",
          "For sys_6|mixed|shr>none|sh>c-e|sc>c-chw|ssf>vv|zh>b-e|zc>none|srf>vv|: Optimum start is not required since design flow rate of 2158 cfm is below the limit of 10000 cfm.",
          "For Sys6 Return Fan: Set fan curve coefficients to reflect control type of 'Single Zone VAV Fan'.",
[...]
            "units": "kWh",
            "value": 0
          },
          {
            "name": "end_use_natural_gas_interior_lighting",
            "units": "kWh",
            "value": 0
          },
          {
            "name": "end_use_natural_gas_exterior_lighting",
            "units": "kWh",
            "value": 0
          },
          {
            "name": "end_use_natural_gas_interior_equipment",
            "units": "kWh",
            "value": 0
          },
          {
            "name": "end_use_natural_gas_exterior_equipment",
            "units": "kWh",
            "value": 0
          },
          {
            "name": "end_use_natural_gas_fans",
            "units": "kWh",
            "value": 0
          },
          {
            "name": "end_use_natural_gas_pumps",
            "units": "kWh",
            "value": 0
          },
          {
            "name": "end_use_natural_gas_heat_rejection",
            "units": "kWh",
            "value": 0
          },
          {
            "name": "end_use_natural_gas_humidification",
            "units": "kWh",
            "value": 0
          },
          {
            "name": "end_use_natural_gas_heat_recovery",
            "units": "kWh",
            "value": 0
          },
          {
            "name": "end_use_natural_gas_water_systems",
            "units": "kWh",
            "value": 0
          },
          {
            "name": "end_use_natural_gas_refrigeration",
            "units": "kWh",
            "value": 0
          },
          {
            "name": "end_use_natural_gas_generators",
            "units": "kWh",
            "value": 0
          },
          {
            "name": "electricity_heating_ip",
            "units": "kWh",
            "value": 462612.4722222222
          },
          {
            "name": "electricity_cooling_ip",
            "units": "kWh",
            "value": 186563.09
          },
          {
            "name": "electricity_interior_lighting_ip",
            "units": "kWh",
            "value": 1103196.3888888888
          },
          {
            "name": "electricity_exterior_lighting_ip",
            "units": "kWh",
            "value": 0
          },
          {
            "name": "electricity_interior_equipment_ip",
            "units": "kWh",
            "value": 1219646.3888888888
          },
          {
            "name": "electricity_exterior_equipment_ip",
            "units": "kWh",
            "value": 0
          },
          {
            "name": "electricity_fans_ip",
            "units": "kWh",
            "value": 842411.9444444444
          },
          {
            "name": "electricity_pumps_ip",
            "units": "kWh",
            "value": 178365.30555555556
          },
          {
            "name": "electricity_heat_rejection_ip",
            "units": "kWh",
            "value": 12363.411081683333
          },
          {
            "name": "electricity_humidification_ip",
            "units": "kWh",
            "value": 0
          },
          {
            "name": "electricity_heat_recovery_ip",
            "units": "kWh",
            "value": 2500.826280377778
          },
          {
            "name": "electricity_water_systems_ip",
            "units": "kWh",
            "value": 470915
          },
          {
            "name": "electricity_refrigeration_ip",
            "units": "kWh",
            "value": 0
          },
          {
            "name": "electricity_generators_ip",
            "units": "kWh",
            "value": 0
          },
          {
            "name": "electricity_ip",
            "units": "kWh",
            "value": 4478574.8273620615
          },
          {
            "name": "natural_gas_heating_ip",
            "units": "kWh",
            "value": 0
          },
          {
            "name": "natural_gas_cooling_ip",
            "units": "kWh",
            "value": 0
          },
          {
            "name": "natural_gas_interior_lighting_ip",
            "units": "kWh",
            "value": 0
          },
          {
            "name": "natural_gas_exterior_lighting_ip",
            "units": "kWh",
            "value": 0
          },
          {
            "name": "natural_gas_interior_equipment_ip",
            "units": "kWh",
            "value": 0
          },
          {
            "name": "natural_gas_exterior_equipment_ip",
            "units": "kWh",
            "value": 0
          },
          {
            "name": "natural_gas_fans_ip",
            "units": "kWh",
            "value": 0
          },
          {
            "name": "natural_gas_pumps_ip",
            "units": "kWh",
            "value": 0
          },
          {
            "name": "natural_gas_heat_rejection_ip",
            "units": "kWh",
            "value": 0
          },
          {
            "name": "natural_gas_humidification_ip",
            "units": "kWh",
            "value": 0
          },
          {
            "name": "natural_gas_heat_recovery_ip",
            "units": "kWh",
            "value": 0
          },
          {
            "name": "natural_gas_water_systems_ip",
            "units": "kWh",
            "value": 0
          },
          {
            "name": "natural_gas_refrigeration_ip",
            "units": "kWh",
            "value": 0
          },
          {
            "name": "natural_gas_generators_ip",
            "units": "kWh",
            "value": 0
          },
          {
            "name": "natural_gas_ip",
            "units": "kWh",
            "value": 0
          },
          {
            "name": "additional_fuel_heating_ip",
            "units": "kWh",
            "value": 0
          },
          {
            "name": "additional_fuel_cooling_ip",
            "units": "kWh",
            "value": 0
          },
          {
            "name": "additional_fuel_interior_lighting_ip",
            "units": "kWh",
            "value": 0
          },
          {
            "name": "additional_fuel_exterior_lighting_ip",
            "units": "kWh",
            "value": 0
          },
          {
            "name": "additional_fuel_interior_equipment_ip",
            "units": "kWh",
            "value": 0
          },
          {
            "name": "additional_fuel_exterior_equipment_ip",
            "units": "kWh",
            "value": 0
          },
          {
            "name": "additional_fuel_fans_ip",
            "units": "kWh",
            "value": 0
          },
          {
            "name": "additional_fuel_pumps_ip",
            "units": "kWh",
            "value": 0
          },
          {
            "name": "additional_fuel_heat_rejection_ip",
            "units": "kWh",
            "value": 0
          },
          {
            "name": "additional_fuel_humidification_ip",
            "units": "kWh",
            "value": 0
          },
          {
            "name": "additional_fuel_heat_recovery_ip",
            "units": "kWh",
            "value": 0
          },
          {
            "name": "additional_fuel_water_systems_ip",
            "units": "kWh",
            "value": 0
          },
          {
            "name": "additional_fuel_refrigeration_ip",
            "units": "kWh",
            "value": 0
          },
          {
            "name": "additional_fuel_generators_ip",
            "units": "kWh",
            "value": 0
          },
          {
            "name": "additional_fuel_ip",
            "units": "kWh",
            "value": 0
          },
          {
            "name": "district_cooling_heating_ip",
            "units": "kWh",
            "value": 0
          },
          {
            "name": "district_cooling_cooling_ip",
            "units": "kWh",
            "value": 0
          },
          {
            "name": "district_cooling_interior_lighting_ip",
            "units": "kWh",
            "value": 0
          },
          {
            "name": "district_cooling_exterior_lighting_ip",
            "units": "kWh",
            "value": 0
          },
          {
            "name": "district_cooling_interior_equipment_ip",
            "units": "kWh",
            "value": 0
          },
          {
            "name": "district_cooling_exterior_equipment_ip",
            "units": "kWh",
            "value": 0
          },
          {
            "name": "district_cooling_fans_ip",
            "units": "kWh",
            "value": 0
          },
          {
            "name": "district_cooling_pumps_ip",
            "units": "kWh",
            "value": 0
          },
          {
            "name": "district_cooling_heat_rejection_ip",
            "units": "kWh",
            "value": 0
          },
          {
            "name": "district_cooling_humidification_ip",
            "units": "kWh",
            "value": 0
          },
          {
            "name": "district_cooling_heat_recovery_ip",
            "units": "kWh",
            "value": 0
          },
          {
            "name": "district_cooling_water_systems_ip",
            "units": "kWh",
            "value": 0
          },
          {
            "name": "district_cooling_refrigeration_ip",
            "units": "kWh",
            "value": 0
          },
          {
            "name": "district_cooling_generators_ip",
            "units": "kWh",
            "value": 0
          },
          {
            "name": "district_cooling_ip",
            "units": "kWh",
            "value": 0
          },
          {
            "name": "district_heating_heating_ip",
            "units": "kWh",
            "value": 0
          },
          {
            "name": "district_heating_cooling_ip",
            "units": "kWh",
            "value": 0
          },
          {
            "name": "district_heating_interior_lighting_ip",
            "units": "kWh",
            "value": 0
          },
          {
            "name": "district_heating_exterior_lighting_ip",
            "units": "kWh",
            "value": 0
          },
          {
            "name": "district_heating_interior_equipment_ip",
            "units": "kWh",
            "value": 0
          },
          {
            "name": "district_heating_exterior_equipment_ip",
            "units": "kWh",
            "value": 0
          },
          {
            "name": "district_heating_fans_ip",
            "units": "kWh",
            "value": 0
          },
          {
            "name": "district_heating_pumps_ip",
            "units": "kWh",
            "value": 0
          },
          {
            "name": "district_heating_heat_rejection_ip",
            "units": "kWh",
            "value": 0
          },
          {
            "name": "district_heating_humidification_ip",
            "units": "kWh",
            "value": 0
          },
          {
            "name": "district_heating_heat_recovery_ip",
            "units": "kWh",
            "value": 0
          },
          {
            "name": "district_heating_water_systems_ip",
            "units": "kWh",
            "value": 0
          },
          {
            "name": "district_heating_refrigeration_ip",
            "units": "kWh",
            "value": 0
          },
          {
            "name": "district_heating_generators_ip",
            "units": "kWh",
            "value": 0
          },
          {
            "name": "district_heating_ip",
            "units": "kWh",
            "value": 0
          },
          {
            "name": "btap_ext_roof_metal_u_0_193",
            "units": "m^2",
            "value": 3563.1060243200004
          },
          {
            "name": "btap_ext_wall_mass_u_0_315",
            "units": "m^2",
            "value": 6953.721018624001
          },
          {
            "name": "btap_ext_fixed_window_u_0_210_shgc_0_600",
            "units": "m^2",
            "value": 4635.814012416
          },
          {
            "name": "gross_window_wall_ratio",
            "units": "%",
            "value": 38.05
          },
          {
            "name": "gross_window_wall_ratio_conditioned",
            "units": "%",
            "value": 53.79
          },
          {
            "name": "skylight_roof_ratio",
            "units": "%",
            "value": 0
          },
          {
            "name": "space_type_space_function_undefined",
            "units": "m^2",
            "value": 0
          },
          {
            "name": "space_type_space_function_electrical_mechanical_room_sch_a",
            "units": "m^2",
            "value": 2779.42661918
          },
          {
            "name": "space_type_space_function_office_open_plan",
            "units": "m^2",
            "value": 43540.95169698
          },
          {
            "name": "core_bottom_service_water_use_0_95_gal_min",
            "units": "m^3/h",
            "value": 0.2147711924577103
          },
          {
            "name": "core_mid_service_water_use_0_95_gal_min",
            "units": "m^3/h",
            "value": 0.2147711924577103
          },
          {
            "name": "core_top_service_water_use_0_95_gal_min",
            "units": "m^3/h",
            "value": 0.2147711924577103
          },
          {
            "name": "datacenter_basement_zn_6_service_water_use_0_3_gal_min",
            "units": "m^3/h",
            "value": 0.06742934208344771
          },
          {
            "name": "datacenter_bot_zn_6_service_water_use_0_01_gal_min",
            "units": "m^3/h",
            "value": 0.0031149562605213062
          },
          {
            "name": "datacenter_mid_zn_6_service_water_use_0_01_gal_min",
            "units": "m^3/h",
            "value": 0.0031149562605213062
          },
          {
            "name": "datacenter_top_zn_6_service_water_use_0_01_gal_min",
            "units": "m^3/h",
            "value": 0.0031149562605213062
          },
          {
            "name": "perimeter_bot_zn_1_service_water_use_0_12_gal_min",
            "units": "m^3/h",
            "value": 0.02696725634637233
          },
          {
            "name": "perimeter_bot_zn_2_service_water_use_0_08_gal_min",
            "units": "m^3/h",
            "value": 0.017378345466114876
          },
          {
            "name": "perimeter_bot_zn_3_service_water_use_0_12_gal_min",
            "units": "m^3/h",
            "value": 0.026966666666140848
          },
          {
            "name": "perimeter_bot_zn_4_service_water_use_0_08_gal_min",
            "units": "m^3/h",
            "value": 0.017378345466114876
          },
          {
            "name": "perimeter_mid_zn_1_service_water_use_0_12_gal_min",
            "units": "m^3/h",
            "value": 0.02696725634637233
          },
          {
            "name": "perimeter_mid_zn_2_service_water_use_0_08_gal_min",
            "units": "m^3/h",
            "value": 0.017378345466114876
          },
          {
            "name": "perimeter_mid_zn_3_service_water_use_0_12_gal_min",
            "units": "m^3/h",
            "value": 0.026966666666140848
          },
          {
            "name": "perimeter_mid_zn_4_service_water_use_0_08_gal_min",
            "units": "m^3/h",
            "value": 0.017378345466114876
          },
          {
            "name": "perimeter_top_zn_1_service_water_use_0_12_gal_min",
            "units": "m^3/h",
            "value": 0.02696725634637233
          },
          {
            "name": "perimeter_top_zn_2_service_water_use_0_08_gal_min",
            "units": "m^3/h",
            "value": 0.017378345466114876
          },
          {
            "name": "perimeter_top_zn_3_service_water_use_0_12_gal_min",
            "units": "m^3/h",
            "value": 0.026966666666140848
          },
          {
            "name": "perimeter_top_zn_4_service_water_use_0_08_gal_min",
            "units": "m^3/h",
            "value": 0.017378345466114876
          },
          {
            "name": "zone_max_hours_over_70_rh",
            "units": "hr",
            "value": 90
          },
          {
            "name": "zone_max_hours_over_55_rh",
            "units": "hr",
            "value": 1241
          },
          {
            "name": "num_zones_x_hours_over_70",
            "units": "zones",
            "value": 6
          },
          {
            "name": "num_zones_x_hours_over_55",
            "units": "zones",
            "value": 15
          },
          {
            "name": "inflation_approach",
            "value": "Constant Dollar"
          },
          {
            "name": "analysis_length",
            "units": "yrs",
            "value": 25
          },
          {
            "name": "number_of_measures_with_warnings",
            "value": 1
          },
          {
            "name": "number_warnings",
            "value": 33
          },
          {
            "name": "annual_peak_electric_demand",
            "units": "kW",
            "value": 1814.60173
          },
          {
            "name": "first_year_capital_cost",
            "units": "$",
            "value": 0
          },
          {
            "name": "annual_utility_cost",
            "units": "$",
            "value": 0
          },
          {
            "name": "total_lifecycle_cost",
            "units": "$",
            "value": 0
          }
        ],
        "step_warnings": []
      }
    },
    {
      "arguments": {
        "calc_choice": "Use rates below",
        "electricity_cost": 0.1,
        "gas_cost": 0.2
      },
      "description": "This measure calculates utility costs for Canadian locations. By default a simple $/kWh tarrif can be applied but for \n\t    several locations more complex rules are enabled.\n\t\tPeak values are reported averaged over the hour (the default LEED table produced by E+ reports the PEAK timestep value).",
      "measure_dir_name": "nrc_report_utility_costs",
      "name": "nrc_report_utility_costs",
      "result": {
        "completed_at": "20211224T152054Z",
        "measure_class_name": "NrcReportUtilityCosts",
        "measure_display_name": "Report Utility Costs",
        "measure_name": "nrc_report_utility_costs",
        "measure_taxonomy": "Reporting.QAQC",
        "measure_type": "ReportingMeasure",
        "measure_uid": "224561f4-8ccc-4f60-8118-34b85359d6f1",
        "measure_version_id": "a8a2acdd-191f-47e2-b076-e7b60c4dacb5",
        "measure_version_modified": "20211224T150114Z",
        "measure_xml_checksum": "9BF1E6AC",
        "started_at": "20211224T152054Z",
        "stderr": "",
        "stdout": "",
        "step_errors": [],
        "step_files": [
          "/mnt/openstudio/analysis_d904aff1-dbdd-41a2-aced-0d4c12834994/data_point_33a76811-ab22-4716-a683-f0300fb16e61/run/002_nrc_report_utility_costs/report.html"
        ],
        "step_info": [],
        "step_result": "Success",
        "step_values": [
          {
            "name": "calc_choice",
            "value": "Use rates below"
          },
          {
            "name": "electricity_cost",
            "value": 0.1
          },
          {
            "name": "gas_cost",
            "value": 0.2
          },
          {
            "name": "total_site_energy",
            "units": "kWh",
            "value": 4479000
          },
          {
            "name": "annual_electricity_use_k_wh",
            "units": "kWh",
            "value": 4480000
          },
          {
            "name": "annual_natural_gas_use_gj",
            "units": "GJ",
            "value": 0
          },
          {
            "name": "annual_electricity_cost",
            "units": "$",
            "value": 447857.86
          },
          {
            "name": "annual_natural_gas_cost",
            "units": "$",
            "value": 0
          }
        ],
        "step_warnings": []
      }
    }
  ],
  "updated_at": "20211224T152105Z",
  "weather_file": "SeedWeather.epw"
}