Program Version,EnergyPlus, Version 9.5.0-de239b2e5f, YMD=2022.05.18 09:12
! This file shows details about the branches, nodes, and other
! elements of the flow connections.
! This file is intended for use in "debugging" potential problems
! that may also be detected by the program, but may be more easily
! identified by "eye".
! This file is also intended to support software which draws a
! schematic diagram of the HVAC system.
! ===============================================================
! #Nodes,<Number of Unique Nodes>
 #Nodes,128
! <Node>,<NodeNumber>,<Node Name>,<Node Fluid Type>,<# Times Node Referenced After Definition>
 Node,1,NODE 23,Air,4
 Node,2,NODE 29,Air,2
 Node,3,NODE 36,Air,4
 Node,4,NODE 42,Air,2
 Node,5,NODE 50,Air,4
 Node,6,NODE 56,Air,2
 Node,7,NODE 64,Air,4
 Node,8,NODE 70,Air,2
 Node,9,NODE 78,Air,4
 Node,10,NODE 84,Air,2
 Node,11,NODE 20,Air,10
 Node,12,NODE 21,Air,3
 Node,13,NODE 33,Air,10
 Node,14,NODE 34,Air,3
 Node,15,NODE 47,Air,10
 Node,16,NODE 48,Air,3
 Node,17,NODE 61,Air,10
 Node,18,NODE 62,Air,3
 Node,19,NODE 75,Air,10
 Node,20,NODE 76,Air,3
 Node,21,NODE 19,Air,4
 Node,22,NODE 28,Air,8
 Node,23,NODE 27,Air,6
 Node,24,NODE 26,Air,8
 Node,25,NODE 32,Air,4
 Node,26,NODE 41,Air,8
 Node,27,NODE 40,Air,6
 Node,28,NODE 39,Air,8
 Node,29,NODE 46,Air,4
 Node,30,NODE 55,Air,8
 Node,31,NODE 54,Air,6
 Node,32,NODE 53,Air,8
 Node,33,NODE 60,Air,4
 Node,34,NODE 69,Air,8
 Node,35,NODE 68,Air,6
 Node,36,NODE 67,Air,8
 Node,37,NODE 74,Air,4
 Node,38,NODE 83,Air,8
 Node,39,NODE 82,Air,6
 Node,40,NODE 81,Air,8
 Node,41,NODE 2,Water,2
 Node,42,NODE 11,Water,1
 Node,43,NODE 5,Water,1
 Node,44,NODE 12,Water,1
 Node,45,NODE 14,Water,1
 Node,46,NODE 15,Water,1
 Node,47,NODE 16,Water,1
 Node,48,NODE 17,Water,1
 Node,49,NODE 18,Water,1
 Node,50,NODE 3,Water,4
 Node,51,NODE 6,Water,2
 Node,52,HOT WATER LOOP DEMAND INLET PIPE NODE,Water,1
 Node,53,NODE 9,Water,1
 Node,54,NODE 31,Water,1
 Node,55,NODE 44,Water,1
 Node,56,NODE 45,Water,1
 Node,57,NODE 58,Water,1
 Node,58,NODE 59,Water,1
 Node,59,NODE 72,Water,1
 Node,60,NODE 73,Water,1
 Node,61,NODE 86,Water,1
 Node,62,NODE 87,Water,1
 Node,63,HOT WATER LOOP DEMAND BYPASS PIPE INLET NODE,Water,1
 Node,64,HOT WATER LOOP DEMAND BYPASS PIPE OUTLET NODE,Water,1
 Node,65,HOT WATER LOOP DEMAND OUTLET PIPE NODE,Water,1
 Node,66,NODE 8,Water,2
 Node,67,NODE 88,Water,2
 Node,68,NODE 94,Water,1
 Node,69,NODE 90,Water,1
 Node,70,NODE 95,Water,1
 Node,71,NODE 96,Water,1
 Node,72,NODE 97,Water,1
 Node,73,NODE 99,Water,1
 Node,74,NODE 89,Water,4
 Node,75,NODE 91,Water,2
 Node,76,MAIN SERVICE WATER LOOP DEMAND INLET PIPE NODE,Water,1
 Node,77,NODE 93,Water,1
 Node,78,NODE 98,Water,1
 Node,79,NODE 101,Water,1
 Node,80,NODE 102,Water,1
 Node,81,NODE 103,Water,1
 Node,82,NODE 104,Water,1
 Node,83,NODE 105,Water,1
 Node,84,NODE 106,Water,1
 Node,85,NODE 107,Water,1
 Node,86,NODE 108,Water,1
 Node,87,NODE 109,Water,1
 Node,88,NODE 110,Water,1
 Node,89,MAIN SERVICE WATER LOOP DEMAND BYPASS PIPE INLET NODE,Water,1
 Node,90,MAIN SERVICE WATER LOOP DEMAND BYPASS PIPE OUTLET NODE,Water,1
 Node,91,NODE 100,Water,1
 Node,92,NODE 92,Water,2
 Node,93,NODE 1,Air,1
 Node,94,NODE 4,Air,1
 Node,95,NODE 7,Air,1
 Node,96,NODE 10,Air,1
 Node,97,NODE 13,Air,1
 Node,98,NODE 22,Air,2
 Node,99,NODE 35,Air,2
 Node,100,NODE 49,Air,2
 Node,101,NODE 63,Air,2
 Node,102,NODE 77,Air,2
 Node,103,NODE 24,Air,3
 Node,104,NODE 37,Air,3
 Node,105,NODE 51,Air,3
 Node,106,NODE 65,Air,3
 Node,107,NODE 79,Air,3
 Node,108,MODEL OUTDOOR AIR NODE,Air,0
 Node,109,NODE 112,Air,2
 Node,110,NODE 114,Air,2
 Node,111,NODE 116,Air,2
 Node,112,NODE 118,Air,2
 Node,113,NODE 120,Air,2
 Node,114,NODE 30,Air,1
 Node,115,NODE 43,Air,1
 Node,116,NODE 57,Air,1
 Node,117,NODE 71,Air,1
 Node,118,NODE 85,Air,1
 Node,119,NODE 113,Air,2
 Node,120,NODE 115,Air,2
 Node,121,NODE 117,Air,2
 Node,122,NODE 119,Air,2
 Node,123,NODE 121,Air,2
 Node,124,NODE 25,Air,0
 Node,125,NODE 38,Air,0
 Node,126,NODE 52,Air,0
 Node,127,NODE 66,Air,0
 Node,128,NODE 80,Air,0
! ===============================================================
! Suspicious nodes have 0 references.  It is normal for some nodes, however.
! Listing nodes with 0 references (culled from previous list):
! <Suspicious Node>,<NodeNumber>,<Node Name>,<Node Fluid Type>,<# Times Node Referenced After Definition>
 Suspicious Node,108,MODEL OUTDOOR AIR NODE,Air,0
 Suspicious Node,124,NODE 25,Air,0
 Suspicious Node,125,NODE 38,Air,0
 Suspicious Node,126,NODE 52,Air,0
 Suspicious Node,127,NODE 66,Air,0
 Suspicious Node,128,NODE 80,Air,0
! ===============================================================
! <#Branch Lists>,<Number of Branch Lists>
 #Branch Lists,9
! <Branch List>,<Branch List Count>,<Branch List Name>,<Loop Name>,<Loop Type>,<Number of Branches>
! <Branch>,<Branch Count>,<Branch Name>,<Loop Name>,<Loop Type>,<Branch Inlet Node Name>,<Branch Outlet Node Name>
 Branch List,1,SYS_3|MIXED|SHR>ERV|SC>DX|SH>C-G|SSF>CV|ZH>B-HW|ZC>NONE|SRF>NONE| SUPPLY BRANCHES,SYS_3|MIXED|SHR>ERV|SC>DX|SH>C-G|SSF>CV|ZH>B-HW|ZC>NONE|SRF>NONE|,Air,1
   Branch,1,SYS_3|MIXED|SHR>ERV|SC>DX|SH>C-G|SSF>CV|ZH>B-HW|ZC>NONE|SRF>NONE| MAIN BRANCH,SYS_3|MIXED|SHR>ERV|SC>DX|SH>C-G|SSF>CV|ZH>B-HW|ZC>NONE|SRF>NONE|,Air,NODE 19,NODE 20
 Branch List,2,SYS_3|MIXED|SHR>ERV|SC>DX|SH>C-G|SSF>CV|ZH>B-HW|ZC>NONE|SRF>NONE| 1 SUPPLY BRANCHES,SYS_3|MIXED|SHR>ERV|SC>DX|SH>C-G|SSF>CV|ZH>B-HW|ZC>NONE|SRF>NONE| 1,Air,1
   Branch,1,SYS_3|MIXED|SHR>ERV|SC>DX|SH>C-G|SSF>CV|ZH>B-HW|ZC>NONE|SRF>NONE| 1 MAIN BRANCH,SYS_3|MIXED|SHR>ERV|SC>DX|SH>C-G|SSF>CV|ZH>B-HW|ZC>NONE|SRF>NONE| 1,Air,NODE 32,NODE 33
 Branch List,3,SYS_3|MIXED|SHR>ERV|SC>DX|SH>C-G|SSF>CV|ZH>B-HW|ZC>NONE|SRF>NONE| 2 SUPPLY BRANCHES,SYS_3|MIXED|SHR>ERV|SC>DX|SH>C-G|SSF>CV|ZH>B-HW|ZC>NONE|SRF>NONE| 2,Air,1
   Branch,1,SYS_3|MIXED|SHR>ERV|SC>DX|SH>C-G|SSF>CV|ZH>B-HW|ZC>NONE|SRF>NONE| 2 MAIN BRANCH,SYS_3|MIXED|SHR>ERV|SC>DX|SH>C-G|SSF>CV|ZH>B-HW|ZC>NONE|SRF>NONE| 2,Air,NODE 46,NODE 47
 Branch List,4,SYS_3|MIXED|SHR>ERV|SC>DX|SH>C-G|SSF>CV|ZH>B-HW|ZC>NONE|SRF>NONE| 3 SUPPLY BRANCHES,SYS_3|MIXED|SHR>ERV|SC>DX|SH>C-G|SSF>CV|ZH>B-HW|ZC>NONE|SRF>NONE| 3,Air,1
   Branch,1,SYS_3|MIXED|SHR>ERV|SC>DX|SH>C-G|SSF>CV|ZH>B-HW|ZC>NONE|SRF>NONE| 3 MAIN BRANCH,SYS_3|MIXED|SHR>ERV|SC>DX|SH>C-G|SSF>CV|ZH>B-HW|ZC>NONE|SRF>NONE| 3,Air,NODE 60,NODE 61
 Branch List,5,SYS_3|MIXED|SHR>ERV|SC>DX|SH>C-G|SSF>CV|ZH>B-HW|ZC>NONE|SRF>NONE| 4 SUPPLY BRANCHES,SYS_3|MIXED|SHR>ERV|SC>DX|SH>C-G|SSF>CV|ZH>B-HW|ZC>NONE|SRF>NONE| 4,Air,1
   Branch,1,SYS_3|MIXED|SHR>ERV|SC>DX|SH>C-G|SSF>CV|ZH>B-HW|ZC>NONE|SRF>NONE| 4 MAIN BRANCH,SYS_3|MIXED|SHR>ERV|SC>DX|SH>C-G|SSF>CV|ZH>B-HW|ZC>NONE|SRF>NONE| 4,Air,NODE 74,NODE 75
 Branch List,6,HOT WATER LOOP SUPPLY BRANCHES,HOT WATER LOOP,Plant Supply,5
   Branch,1,HOT WATER LOOP SUPPLY INLET BRANCH,HOT WATER LOOP,Plant Supply,NODE 2,NODE 11
   Branch,2,HOT WATER LOOP SUPPLY BRANCH 1,HOT WATER LOOP,Plant Supply,NODE 5,NODE 12
   Branch,3,HOT WATER LOOP SUPPLY BRANCH 2,HOT WATER LOOP,Plant Supply,NODE 14,NODE 15
   Branch,4,HOT WATER LOOP SUPPLY BRANCH 3,HOT WATER LOOP,Plant Supply,NODE 16,NODE 17
   Branch,5,HOT WATER LOOP SUPPLY OUTLET BRANCH,HOT WATER LOOP,Plant Supply,NODE 18,NODE 3
 Branch List,7,HOT WATER LOOP DEMAND BRANCHES,HOT WATER LOOP,Plant Demand,8
   Branch,1,HOT WATER LOOP DEMAND INLET BRANCH,HOT WATER LOOP,Plant Demand,NODE 6,HOT WATER LOOP DEMAND INLET PIPE NODE
   Branch,2,HOT WATER LOOP DEMAND BRANCH 1,HOT WATER LOOP,Plant Demand,NODE 9,NODE 31
   Branch,3,HOT WATER LOOP DEMAND BRANCH 2,HOT WATER LOOP,Plant Demand,NODE 44,NODE 45
   Branch,4,HOT WATER LOOP DEMAND BRANCH 3,HOT WATER LOOP,Plant Demand,NODE 58,NODE 59
   Branch,5,HOT WATER LOOP DEMAND BRANCH 4,HOT WATER LOOP,Plant Demand,NODE 72,NODE 73
   Branch,6,HOT WATER LOOP DEMAND BRANCH 5,HOT WATER LOOP,Plant Demand,NODE 86,NODE 87
   Branch,7,HOT WATER LOOP DEMAND BYPASS BRANCH,HOT WATER LOOP,Plant Demand,HOT WATER LOOP DEMAND BYPASS PIPE INLET NODE,HOT WATER LOOP DEMAND BYPASS PIPE OUTLET NODE
   Branch,8,HOT WATER LOOP DEMAND OUTLET BRANCH,HOT WATER LOOP,Plant Demand,HOT WATER LOOP DEMAND OUTLET PIPE NODE,NODE 8
 Branch List,8,MAIN SERVICE WATER LOOP SUPPLY BRANCHES,MAIN SERVICE WATER LOOP,Plant Supply,4
   Branch,1,MAIN SERVICE WATER LOOP SUPPLY INLET BRANCH,MAIN SERVICE WATER LOOP,Plant Supply,NODE 88,NODE 94
   Branch,2,MAIN SERVICE WATER LOOP SUPPLY BRANCH 1,MAIN SERVICE WATER LOOP,Plant Supply,NODE 90,NODE 95
   Branch,3,MAIN SERVICE WATER LOOP SUPPLY BRANCH 2,MAIN SERVICE WATER LOOP,Plant Supply,NODE 96,NODE 97
   Branch,4,MAIN SERVICE WATER LOOP SUPPLY OUTLET BRANCH,MAIN SERVICE WATER LOOP,Plant Supply,NODE 99,NODE 89
 Branch List,9,MAIN SERVICE WATER LOOP DEMAND BRANCHES,MAIN SERVICE WATER LOOP,Plant Demand,9
   Branch,1,MAIN SERVICE WATER LOOP DEMAND INLET BRANCH,MAIN SERVICE WATER LOOP,Plant Demand,NODE 91,MAIN SERVICE WATER LOOP DEMAND INLET PIPE NODE
   Branch,2,MAIN SERVICE WATER LOOP DEMAND BRANCH 1,MAIN SERVICE WATER LOOP,Plant Demand,NODE 93,NODE 98
   Branch,3,MAIN SERVICE WATER LOOP DEMAND BRANCH 2,MAIN SERVICE WATER LOOP,Plant Demand,NODE 101,NODE 102
   Branch,4,MAIN SERVICE WATER LOOP DEMAND BRANCH 3,MAIN SERVICE WATER LOOP,Plant Demand,NODE 103,NODE 104
   Branch,5,MAIN SERVICE WATER LOOP DEMAND BRANCH 4,MAIN SERVICE WATER LOOP,Plant Demand,NODE 105,NODE 106
   Branch,6,MAIN SERVICE WATER LOOP DEMAND BRANCH 5,MAIN SERVICE WATER LOOP,Plant Demand,NODE 107,NODE 108
   Branch,7,MAIN SERVICE WATER LOOP DEMAND BRANCH 6,MAIN SERVICE WATER LOOP,Plant Demand,NODE 109,NODE 110
   Branch,8,MAIN SERVICE WATER LOOP DEMAND BYPASS BRANCH,MAIN SERVICE WATER LOOP,Plant Demand,MAIN SERVICE WATER LOOP DEMAND BYPASS PIPE INLET NODE,MAIN SERVICE WATER LOOP DEMAND BYPASS PIPE OUTLET NODE
   Branch,9,MAIN SERVICE WATER LOOP DEMAND OUTLET BRANCH,MAIN SERVICE WATER LOOP,Plant Demand,NODE 100,NODE 92
! ===============================================================
! <#Supply Air Paths>,<Number of Supply Air Paths>
 #Supply Air Paths,5
! <Supply Air Path>,<Supply Air Path Count>,<Supply Air Path Name>,<AirLoopHVAC Name>
! <#Components on Supply Air Path>,<Number of Components>
! <Supply Air Path Component>,<Component Count>,<Component Type>,<Component Name>,<AirLoopHVAC Name>
! <#Outlet Nodes on Supply Air Path Component>,<Number of Nodes>
! <Supply Air Path Component Nodes>,<Node Count>,<Component Type>,<Component Name>,<Inlet Node Name>,<Outlet Node Name>,<AirLoopHVAC Name>
 Supply Air Path,1,SYS_3|MIXED|SHR>ERV|SC>DX|SH>C-G|SSF>CV|ZH>B-HW|ZC>NONE|SRF>NONE| NODE 21 SUPPLY PATH,SYS_3|MIXED|SHR>ERV|SC>DX|SH>C-G|SSF>CV|ZH>B-HW|ZC>NONE|SRF>NONE|
   #Components on Supply Air Path,1
   Supply Air Path Component,1,AIRLOOPHVAC:ZONESPLITTER,AIR LOOP HVAC ZONE SPLITTER 1,SYS_3|MIXED|SHR>ERV|SC>DX|SH>C-G|SSF>CV|ZH>B-HW|ZC>NONE|SRF>NONE|
     #Outlet Nodes on Supply Air Path Component,1
     Supply Air Path Component Nodes,1,AIRLOOPHVAC:ZONESPLITTER,AIR LOOP HVAC ZONE SPLITTER 1,NODE 21,NODE 30,SYS_3|MIXED|SHR>ERV|SC>DX|SH>C-G|SSF>CV|ZH>B-HW|ZC>NONE|SRF>NONE|
! <#Nodes on Supply Air Path>,<Number of Nodes>
! <Supply Air Path Node>,<Node Type>,<Node Count>,<Node Name>,<AirLoopHVAC Name>
#Nodes on Supply Air Path,2
   Supply Air Path Node,Inlet Node,1,NODE 21,SYS_3|MIXED|SHR>ERV|SC>DX|SH>C-G|SSF>CV|ZH>B-HW|ZC>NONE|SRF>NONE|
   Supply Air Path Node,Outlet Node,2,NODE 30,SYS_3|MIXED|SHR>ERV|SC>DX|SH>C-G|SSF>CV|ZH>B-HW|ZC>NONE|SRF>NONE|
 Supply Air Path,2,SYS_3|MIXED|SHR>ERV|SC>DX|SH>C-G|SSF>CV|ZH>B-HW|ZC>NONE|SRF>NONE| 1 NODE 34 SUPPLY PATH,SYS_3|MIXED|SHR>ERV|SC>DX|SH>C-G|SSF>CV|ZH>B-HW|ZC>NONE|SRF>NONE| 1
   #Components on Supply Air Path,1
   Supply Air Path Component,1,AIRLOOPHVAC:ZONESPLITTER,AIR LOOP HVAC ZONE SPLITTER 2,SYS_3|MIXED|SHR>ERV|SC>DX|SH>C-G|SSF>CV|ZH>B-HW|ZC>NONE|SRF>NONE| 1
     #Outlet Nodes on Supply Air Path Component,1
     Supply Air Path Component Nodes,1,AIRLOOPHVAC:ZONESPLITTER,AIR LOOP HVAC ZONE SPLITTER 2,NODE 34,NODE 43,SYS_3|MIXED|SHR>ERV|SC>DX|SH>C-G|SSF>CV|ZH>B-HW|ZC>NONE|SRF>NONE| 1
! <#Nodes on Supply Air Path>,<Number of Nodes>
! <Supply Air Path Node>,<Node Type>,<Node Count>,<Node Name>,<AirLoopHVAC Name>
#Nodes on Supply Air Path,2
   Supply Air Path Node,Inlet Node,1,NODE 34,SYS_3|MIXED|SHR>ERV|SC>DX|SH>C-G|SSF>CV|ZH>B-HW|ZC>NONE|SRF>NONE| 1
   Supply Air Path Node,Outlet Node,2,NODE 43,SYS_3|MIXED|SHR>ERV|SC>DX|SH>C-G|SSF>CV|ZH>B-HW|ZC>NONE|SRF>NONE| 1
 Supply Air Path,3,SYS_3|MIXED|SHR>ERV|SC>DX|SH>C-G|SSF>CV|ZH>B-HW|ZC>NONE|SRF>NONE| 2 NODE 48 SUPPLY PATH,SYS_3|MIXED|SHR>ERV|SC>DX|SH>C-G|SSF>CV|ZH>B-HW|ZC>NONE|SRF>NONE| 2
   #Components on Supply Air Path,1
   Supply Air Path Component,1,AIRLOOPHVAC:ZONESPLITTER,AIR LOOP HVAC ZONE SPLITTER 3,SYS_3|MIXED|SHR>ERV|SC>DX|SH>C-G|SSF>CV|ZH>B-HW|ZC>NONE|SRF>NONE| 2
     #Outlet Nodes on Supply Air Path Component,1
     Supply Air Path Component Nodes,1,AIRLOOPHVAC:ZONESPLITTER,AIR LOOP HVAC ZONE SPLITTER 3,NODE 48,NODE 57,SYS_3|MIXED|SHR>ERV|SC>DX|SH>C-G|SSF>CV|ZH>B-HW|ZC>NONE|SRF>NONE| 2
! <#Nodes on Supply Air Path>,<Number of Nodes>
! <Supply Air Path Node>,<Node Type>,<Node Count>,<Node Name>,<AirLoopHVAC Name>
#Nodes on Supply Air Path,2
   Supply Air Path Node,Inlet Node,1,NODE 48,SYS_3|MIXED|SHR>ERV|SC>DX|SH>C-G|SSF>CV|ZH>B-HW|ZC>NONE|SRF>NONE| 2
   Supply Air Path Node,Outlet Node,2,NODE 57,SYS_3|MIXED|SHR>ERV|SC>DX|SH>C-G|SSF>CV|ZH>B-HW|ZC>NONE|SRF>NONE| 2
 Supply Air Path,4,SYS_3|MIXED|SHR>ERV|SC>DX|SH>C-G|SSF>CV|ZH>B-HW|ZC>NONE|SRF>NONE| 3 NODE 62 SUPPLY PATH,SYS_3|MIXED|SHR>ERV|SC>DX|SH>C-G|SSF>CV|ZH>B-HW|ZC>NONE|SRF>NONE| 3
   #Components on Supply Air Path,1
   Supply Air Path Component,1,AIRLOOPHVAC:ZONESPLITTER,AIR LOOP HVAC ZONE SPLITTER 4,SYS_3|MIXED|SHR>ERV|SC>DX|SH>C-G|SSF>CV|ZH>B-HW|ZC>NONE|SRF>NONE| 3
     #Outlet Nodes on Supply Air Path Component,1
     Supply Air Path Component Nodes,1,AIRLOOPHVAC:ZONESPLITTER,AIR LOOP HVAC ZONE SPLITTER 4,NODE 62,NODE 71,SYS_3|MIXED|SHR>ERV|SC>DX|SH>C-G|SSF>CV|ZH>B-HW|ZC>NONE|SRF>NONE| 3
! <#Nodes on Supply Air Path>,<Number of Nodes>
! <Supply Air Path Node>,<Node Type>,<Node Count>,<Node Name>,<AirLoopHVAC Name>
#Nodes on Supply Air Path,2
   Supply Air Path Node,Inlet Node,1,NODE 62,SYS_3|MIXED|SHR>ERV|SC>DX|SH>C-G|SSF>CV|ZH>B-HW|ZC>NONE|SRF>NONE| 3
   Supply Air Path Node,Outlet Node,2,NODE 71,SYS_3|MIXED|SHR>ERV|SC>DX|SH>C-G|SSF>CV|ZH>B-HW|ZC>NONE|SRF>NONE| 3
 Supply Air Path,5,SYS_3|MIXED|SHR>ERV|SC>DX|SH>C-G|SSF>CV|ZH>B-HW|ZC>NONE|SRF>NONE| 4 NODE 76 SUPPLY PATH,SYS_3|MIXED|SHR>ERV|SC>DX|SH>C-G|SSF>CV|ZH>B-HW|ZC>NONE|SRF>NONE| 4
   #Components on Supply Air Path,1
   Supply Air Path Component,1,AIRLOOPHVAC:ZONESPLITTER,AIR LOOP HVAC ZONE SPLITTER 5,SYS_3|MIXED|SHR>ERV|SC>DX|SH>C-G|SSF>CV|ZH>B-HW|ZC>NONE|SRF>NONE| 4
     #Outlet Nodes on Supply Air Path Component,1
     Supply Air Path Component Nodes,1,AIRLOOPHVAC:ZONESPLITTER,AIR LOOP HVAC ZONE SPLITTER 5,NODE 76,NODE 85,SYS_3|MIXED|SHR>ERV|SC>DX|SH>C-G|SSF>CV|ZH>B-HW|ZC>NONE|SRF>NONE| 4
! <#Nodes on Supply Air Path>,<Number of Nodes>
! <Supply Air Path Node>,<Node Type>,<Node Count>,<Node Name>,<AirLoopHVAC Name>
#Nodes on Supply Air Path,2
   Supply Air Path Node,Inlet Node,1,NODE 76,SYS_3|MIXED|SHR>ERV|SC>DX|SH>C-G|SSF>CV|ZH>B-HW|ZC>NONE|SRF>NONE| 4
   Supply Air Path Node,Outlet Node,2,NODE 85,SYS_3|MIXED|SHR>ERV|SC>DX|SH>C-G|SSF>CV|ZH>B-HW|ZC>NONE|SRF>NONE| 4
! ===============================================================
! <#Return Air Paths>,<Number of Return Air Paths>
 #Return Air Paths,5
! <Return Air Path>,<Return Air Path Count>,<Return Air Path Name>,<AirLoopHVAC Name>
! <#Components on Return Air Path>,<Number of Components>
! <Return Air Path Component>,<Component Count>,<Component Type>,<Component Name>,<AirLoopHVAC Name>
! <#Inlet Nodes on Return Air Path Component>,<Number of Nodes>
! <Return Air Path Component Nodes>,<Node Count>,<Component Type>,<Component Name>,<Inlet Node Name>,<Outlet Node Name>,<AirLoopHVAC Name>
 Return Air Path,1,SYS_3|MIXED|SHR>ERV|SC>DX|SH>C-G|SSF>CV|ZH>B-HW|ZC>NONE|SRF>NONE| RETURN PATH,SYS_3|MIXED|SHR>ERV|SC>DX|SH>C-G|SSF>CV|ZH>B-HW|ZC>NONE|SRF>NONE|
   #Components on Return Air Path,1
   Return Air Path Component,1,AIRLOOPHVAC:ZONEMIXER,AIR LOOP HVAC ZONE MIXER 1,SYS_3|MIXED|SHR>ERV|SC>DX|SH>C-G|SSF>CV|ZH>B-HW|ZC>NONE|SRF>NONE|
     #Inlet Nodes on Return Air Path Component,1
     Return Air Path Component Nodes,1,AIRLOOPHVAC:ZONEMIXER,AIR LOOP HVAC ZONE MIXER 1,NODE 29,NODE 22,SYS_3|MIXED|SHR>ERV|SC>DX|SH>C-G|SSF>CV|ZH>B-HW|ZC>NONE|SRF>NONE|
! <#Nodes on Return Air Path>,<Number of Nodes>
! <Return Air Path Node>,<Node Type>,<Node Count>,<Node Name>,<AirLoopHVAC Name>
   #Nodes on Return Air Path,2
   Return Air Path Node,Outlet Node,1,NODE 22,SYS_3|MIXED|SHR>ERV|SC>DX|SH>C-G|SSF>CV|ZH>B-HW|ZC>NONE|SRF>NONE|
   Return Air Path Node,Inlet Node,2,NODE 29,SYS_3|MIXED|SHR>ERV|SC>DX|SH>C-G|SSF>CV|ZH>B-HW|ZC>NONE|SRF>NONE|
 Return Air Path,2,SYS_3|MIXED|SHR>ERV|SC>DX|SH>C-G|SSF>CV|ZH>B-HW|ZC>NONE|SRF>NONE| 1 RETURN PATH,SYS_3|MIXED|SHR>ERV|SC>DX|SH>C-G|SSF>CV|ZH>B-HW|ZC>NONE|SRF>NONE| 1
   #Components on Return Air Path,1
   Return Air Path Component,1,AIRLOOPHVAC:ZONEMIXER,AIR LOOP HVAC ZONE MIXER 2,SYS_3|MIXED|SHR>ERV|SC>DX|SH>C-G|SSF>CV|ZH>B-HW|ZC>NONE|SRF>NONE| 1
     #Inlet Nodes on Return Air Path Component,1
     Return Air Path Component Nodes,1,AIRLOOPHVAC:ZONEMIXER,AIR LOOP HVAC ZONE MIXER 2,NODE 42,NODE 35,SYS_3|MIXED|SHR>ERV|SC>DX|SH>C-G|SSF>CV|ZH>B-HW|ZC>NONE|SRF>NONE| 1
! <#Nodes on Return Air Path>,<Number of Nodes>
! <Return Air Path Node>,<Node Type>,<Node Count>,<Node Name>,<AirLoopHVAC Name>
   #Nodes on Return Air Path,2
   Return Air Path Node,Outlet Node,1,NODE 35,SYS_3|MIXED|SHR>ERV|SC>DX|SH>C-G|SSF>CV|ZH>B-HW|ZC>NONE|SRF>NONE| 1
   Return Air Path Node,Inlet Node,2,NODE 42,SYS_3|MIXED|SHR>ERV|SC>DX|SH>C-G|SSF>CV|ZH>B-HW|ZC>NONE|SRF>NONE| 1
 Return Air Path,3,SYS_3|MIXED|SHR>ERV|SC>DX|SH>C-G|SSF>CV|ZH>B-HW|ZC>NONE|SRF>NONE| 2 RETURN PATH,SYS_3|MIXED|SHR>ERV|SC>DX|SH>C-G|SSF>CV|ZH>B-HW|ZC>NONE|SRF>NONE| 2
   #Components on Return Air Path,1
   Return Air Path Component,1,AIRLOOPHVAC:ZONEMIXER,AIR LOOP HVAC ZONE MIXER 3,SYS_3|MIXED|SHR>ERV|SC>DX|SH>C-G|SSF>CV|ZH>B-HW|ZC>NONE|SRF>NONE| 2
     #Inlet Nodes on Return Air Path Component,1
     Return Air Path Component Nodes,1,AIRLOOPHVAC:ZONEMIXER,AIR LOOP HVAC ZONE MIXER 3,NODE 56,NODE 49,SYS_3|MIXED|SHR>ERV|SC>DX|SH>C-G|SSF>CV|ZH>B-HW|ZC>NONE|SRF>NONE| 2
! <#Nodes on Return Air Path>,<Number of Nodes>
! <Return Air Path Node>,<Node Type>,<Node Count>,<Node Name>,<AirLoopHVAC Name>
   #Nodes on Return Air Path,2
   Return Air Path Node,Outlet Node,1,NODE 49,SYS_3|MIXED|SHR>ERV|SC>DX|SH>C-G|SSF>CV|ZH>B-HW|ZC>NONE|SRF>NONE| 2
   Return Air Path Node,Inlet Node,2,NODE 56,SYS_3|MIXED|SHR>ERV|SC>DX|SH>C-G|SSF>CV|ZH>B-HW|ZC>NONE|SRF>NONE| 2
 Return Air Path,4,SYS_3|MIXED|SHR>ERV|SC>DX|SH>C-G|SSF>CV|ZH>B-HW|ZC>NONE|SRF>NONE| 3 RETURN PATH,SYS_3|MIXED|SHR>ERV|SC>DX|SH>C-G|SSF>CV|ZH>B-HW|ZC>NONE|SRF>NONE| 3
   #Components on Return Air Path,1
   Return Air Path Component,1,AIRLOOPHVAC:ZONEMIXER,AIR LOOP HVAC ZONE MIXER 4,SYS_3|MIXED|SHR>ERV|SC>DX|SH>C-G|SSF>CV|ZH>B-HW|ZC>NONE|SRF>NONE| 3
     #Inlet Nodes on Return Air Path Component,1
     Return Air Path Component Nodes,1,AIRLOOPHVAC:ZONEMIXER,AIR LOOP HVAC ZONE MIXER 4,NODE 70,NODE 63,SYS_3|MIXED|SHR>ERV|SC>DX|SH>C-G|SSF>CV|ZH>B-HW|ZC>NONE|SRF>NONE| 3
! <#Nodes on Return Air Path>,<Number of Nodes>
! <Return Air Path Node>,<Node Type>,<Node Count>,<Node Name>,<AirLoopHVAC Name>
   #Nodes on Return Air Path,2
   Return Air Path Node,Outlet Node,1,NODE 63,SYS_3|MIXED|SHR>ERV|SC>DX|SH>C-G|SSF>CV|ZH>B-HW|ZC>NONE|SRF>NONE| 3
   Return Air Path Node,Inlet Node,2,NODE 70,SYS_3|MIXED|SHR>ERV|SC>DX|SH>C-G|SSF>CV|ZH>B-HW|ZC>NONE|SRF>NONE| 3
 Return Air Path,5,SYS_3|MIXED|SHR>ERV|SC>DX|SH>C-G|SSF>CV|ZH>B-HW|ZC>NONE|SRF>NONE| 4 RETURN PATH,SYS_3|MIXED|SHR>ERV|SC>DX|SH>C-G|SSF>CV|ZH>B-HW|ZC>NONE|SRF>NONE| 4
   #Components on Return Air Path,1
   Return Air Path Component,1,AIRLOOPHVAC:ZONEMIXER,AIR LOOP HVAC ZONE MIXER 5,SYS_3|MIXED|SHR>ERV|SC>DX|SH>C-G|SSF>CV|ZH>B-HW|ZC>NONE|SRF>NONE| 4
     #Inlet Nodes on Return Air Path Component,1
     Return Air Path Component Nodes,1,AIRLOOPHVAC:ZONEMIXER,AIR LOOP HVAC ZONE MIXER 5,NODE 84,NODE 77,SYS_3|MIXED|SHR>ERV|SC>DX|SH>C-G|SSF>CV|ZH>B-HW|ZC>NONE|SRF>NONE| 4
! <#Nodes on Return Air Path>,<Number of Nodes>
! <Return Air Path Node>,<Node Type>,<Node Count>,<Node Name>,<AirLoopHVAC Name>
   #Nodes on Return Air Path,2
   Return Air Path Node,Outlet Node,1,NODE 77,SYS_3|MIXED|SHR>ERV|SC>DX|SH>C-G|SSF>CV|ZH>B-HW|ZC>NONE|SRF>NONE| 4
   Return Air Path Node,Inlet Node,2,NODE 84,SYS_3|MIXED|SHR>ERV|SC>DX|SH>C-G|SSF>CV|ZH>B-HW|ZC>NONE|SRF>NONE| 4
! ===============================================================
! #Outdoor Air Nodes,<Number of Outdoor Air Nodes>
 #Outdoor Air Nodes,6
! <Outdoor Air Node>,<NodeNumber>,<Node Name>
 Outdoor Air Node,103,NODE 24
 Outdoor Air Node,104,NODE 37
 Outdoor Air Node,105,NODE 51
 Outdoor Air Node,106,NODE 65
 Outdoor Air Node,107,NODE 79
 Outdoor Air Node,108,MODEL OUTDOOR AIR NODE
! ===============================================================
! <#Component Sets>,<Number of Component Sets>
 #Component Sets,66
! <Component Set>,<Component Set Count>,<Parent Object Type>,<Parent Object Name>,<Component Type>,<Component Name>,<Inlet Node ID>,<Outlet Node ID>,<Description>
 Component Set,1,BRANCH,SYS_3|MIXED|SHR>ERV|SC>DX|SH>C-G|SSF>CV|ZH>B-HW|ZC>NONE|SRF>NONE| MAIN BRANCH,AIRLOOPHVAC:OUTDOORAIRSYSTEM,AIR LOOP HVAC OUTDOOR AIR SYSTEM 1,NODE 19,NODE 28,Air Nodes
 Component Set,2,BRANCH,SYS_3|MIXED|SHR>ERV|SC>DX|SH>C-G|SSF>CV|ZH>B-HW|ZC>NONE|SRF>NONE| MAIN BRANCH,COILSYSTEM:COOLING:DX,COILCOOLINGDXSINGLESPEED_DX 29KBTU/HR 15.0SEER COILSYSTEM,NODE 28,NODE 27,Air Nodes
 Component Set,3,BRANCH,SYS_3|MIXED|SHR>ERV|SC>DX|SH>C-G|SSF>CV|ZH>B-HW|ZC>NONE|SRF>NONE| MAIN BRANCH,COIL:HEATING:FUEL,COIL HEATING GAS 1,NODE 27,NODE 26,Air Nodes
 Component Set,4,BRANCH,SYS_3|MIXED|SHR>ERV|SC>DX|SH>C-G|SSF>CV|ZH>B-HW|ZC>NONE|SRF>NONE| MAIN BRANCH,FAN:CONSTANTVOLUME,FAN CONSTANT VOLUME 1,NODE 26,NODE 20,Air Nodes
 Component Set,5,BRANCH,SYS_3|MIXED|SHR>ERV|SC>DX|SH>C-G|SSF>CV|ZH>B-HW|ZC>NONE|SRF>NONE| 1 MAIN BRANCH,AIRLOOPHVAC:OUTDOORAIRSYSTEM,AIR LOOP HVAC OUTDOOR AIR SYSTEM 2,NODE 32,NODE 41,Air Nodes
 Component Set,6,BRANCH,SYS_3|MIXED|SHR>ERV|SC>DX|SH>C-G|SSF>CV|ZH>B-HW|ZC>NONE|SRF>NONE| 1 MAIN BRANCH,COILSYSTEM:COOLING:DX,COILCOOLINGDXSINGLESPEED_DX 1 23KBTU/HR 15.0SEER COILSYSTEM,NODE 41,NODE 40,Air Nodes
 Component Set,7,BRANCH,SYS_3|MIXED|SHR>ERV|SC>DX|SH>C-G|SSF>CV|ZH>B-HW|ZC>NONE|SRF>NONE| 1 MAIN BRANCH,COIL:HEATING:FUEL,COIL HEATING GAS 2,NODE 40,NODE 39,Air Nodes
 Component Set,8,BRANCH,SYS_3|MIXED|SHR>ERV|SC>DX|SH>C-G|SSF>CV|ZH>B-HW|ZC>NONE|SRF>NONE| 1 MAIN BRANCH,FAN:CONSTANTVOLUME,FAN CONSTANT VOLUME 2,NODE 39,NODE 33,Air Nodes
 Component Set,9,BRANCH,SYS_3|MIXED|SHR>ERV|SC>DX|SH>C-G|SSF>CV|ZH>B-HW|ZC>NONE|SRF>NONE| 2 MAIN BRANCH,AIRLOOPHVAC:OUTDOORAIRSYSTEM,AIR LOOP HVAC OUTDOOR AIR SYSTEM 3,NODE 46,NODE 55,Air Nodes
 Component Set,10,BRANCH,SYS_3|MIXED|SHR>ERV|SC>DX|SH>C-G|SSF>CV|ZH>B-HW|ZC>NONE|SRF>NONE| 2 MAIN BRANCH,COILSYSTEM:COOLING:DX,COILCOOLINGDXSINGLESPEED_DX 2 15KBTU/HR 15.0SEER COILSYSTEM,NODE 55,NODE 54,Air Nodes
 Component Set,11,BRANCH,SYS_3|MIXED|SHR>ERV|SC>DX|SH>C-G|SSF>CV|ZH>B-HW|ZC>NONE|SRF>NONE| 2 MAIN BRANCH,COIL:HEATING:FUEL,COIL HEATING GAS 3,NODE 54,NODE 53,Air Nodes
 Component Set,12,BRANCH,SYS_3|MIXED|SHR>ERV|SC>DX|SH>C-G|SSF>CV|ZH>B-HW|ZC>NONE|SRF>NONE| 2 MAIN BRANCH,FAN:CONSTANTVOLUME,FAN CONSTANT VOLUME 3,NODE 53,NODE 47,Air Nodes
 Component Set,13,BRANCH,SYS_3|MIXED|SHR>ERV|SC>DX|SH>C-G|SSF>CV|ZH>B-HW|ZC>NONE|SRF>NONE| 3 MAIN BRANCH,AIRLOOPHVAC:OUTDOORAIRSYSTEM,AIR LOOP HVAC OUTDOOR AIR SYSTEM 4,NODE 60,NODE 69,Air Nodes
 Component Set,14,BRANCH,SYS_3|MIXED|SHR>ERV|SC>DX|SH>C-G|SSF>CV|ZH>B-HW|ZC>NONE|SRF>NONE| 3 MAIN BRANCH,COILSYSTEM:COOLING:DX,COILCOOLINGDXSINGLESPEED_DX 3 21KBTU/HR 15.0SEER COILSYSTEM,NODE 69,NODE 68,Air Nodes
 Component Set,15,BRANCH,SYS_3|MIXED|SHR>ERV|SC>DX|SH>C-G|SSF>CV|ZH>B-HW|ZC>NONE|SRF>NONE| 3 MAIN BRANCH,COIL:HEATING:FUEL,COIL HEATING GAS 4,NODE 68,NODE 67,Air Nodes
 Component Set,16,BRANCH,SYS_3|MIXED|SHR>ERV|SC>DX|SH>C-G|SSF>CV|ZH>B-HW|ZC>NONE|SRF>NONE| 3 MAIN BRANCH,FAN:CONSTANTVOLUME,FAN CONSTANT VOLUME 4,NODE 67,NODE 61,Air Nodes
 Component Set,17,BRANCH,SYS_3|MIXED|SHR>ERV|SC>DX|SH>C-G|SSF>CV|ZH>B-HW|ZC>NONE|SRF>NONE| 4 MAIN BRANCH,AIRLOOPHVAC:OUTDOORAIRSYSTEM,AIR LOOP HVAC OUTDOOR AIR SYSTEM 5,NODE 74,NODE 83,Air Nodes
 Component Set,18,BRANCH,SYS_3|MIXED|SHR>ERV|SC>DX|SH>C-G|SSF>CV|ZH>B-HW|ZC>NONE|SRF>NONE| 4 MAIN BRANCH,COILSYSTEM:COOLING:DX,COILCOOLINGDXSINGLESPEED_DX 4 41KBTU/HR 15.0SEER COILSYSTEM,NODE 83,NODE 82,Air Nodes
 Component Set,19,BRANCH,SYS_3|MIXED|SHR>ERV|SC>DX|SH>C-G|SSF>CV|ZH>B-HW|ZC>NONE|SRF>NONE| 4 MAIN BRANCH,COIL:HEATING:FUEL,COIL HEATING GAS 5,NODE 82,NODE 81,Air Nodes
 Component Set,20,BRANCH,SYS_3|MIXED|SHR>ERV|SC>DX|SH>C-G|SSF>CV|ZH>B-HW|ZC>NONE|SRF>NONE| 4 MAIN BRANCH,FAN:CONSTANTVOLUME,FAN CONSTANT VOLUME 5,NODE 81,NODE 75,Air Nodes
 Component Set,21,BRANCH,HOT WATER LOOP SUPPLY INLET BRANCH,PUMP:VARIABLESPEED,PUMP VARIABLE SPEED 1,NODE 2,NODE 11,Water Nodes
 Component Set,22,BRANCH,HOT WATER LOOP SUPPLY BRANCH 1,BOILER:HOTWATER,PRIMARY BOILER 80KBTU/HR 0.9 AFUE,NODE 5,NODE 12,Hot Water Nodes
 Component Set,23,BRANCH,HOT WATER LOOP SUPPLY BRANCH 2,BOILER:HOTWATER,SECONDARY BOILER 0KBTU/HR 0.9 AFUE,NODE 14,NODE 15,Hot Water Nodes
 Component Set,24,BRANCH,HOT WATER LOOP SUPPLY BRANCH 3,PIPE:ADIABATIC,PIPE ADIABATIC 1,NODE 16,NODE 17,Pipe Nodes
 Component Set,25,BRANCH,HOT WATER LOOP SUPPLY OUTLET BRANCH,PIPE:ADIABATIC,PIPE ADIABATIC 2,NODE 18,NODE 3,Pipe Nodes
 Component Set,26,BRANCH,HOT WATER LOOP DEMAND INLET BRANCH,PIPE:ADIABATIC,HOT WATER LOOP DEMAND INLET PIPE,NODE 6,HOT WATER LOOP DEMAND INLET PIPE NODE,Pipe Nodes
 Component Set,27,BRANCH,HOT WATER LOOP DEMAND BRANCH 1,ZONEHVAC:BASEBOARD:CONVECTIVE:WATER,ZONE HVAC BASEBOARD CONVECTIVE WATER 1,NODE 9,NODE 31,Hot Water Nodes
 Component Set,28,BRANCH,HOT WATER LOOP DEMAND BRANCH 2,ZONEHVAC:BASEBOARD:CONVECTIVE:WATER,ZONE HVAC BASEBOARD CONVECTIVE WATER 2,NODE 44,NODE 45,Hot Water Nodes
 Component Set,29,BRANCH,HOT WATER LOOP DEMAND BRANCH 3,ZONEHVAC:BASEBOARD:CONVECTIVE:WATER,ZONE HVAC BASEBOARD CONVECTIVE WATER 3,NODE 58,NODE 59,Hot Water Nodes
 Component Set,30,BRANCH,HOT WATER LOOP DEMAND BRANCH 4,ZONEHVAC:BASEBOARD:CONVECTIVE:WATER,ZONE HVAC BASEBOARD CONVECTIVE WATER 4,NODE 72,NODE 73,Hot Water Nodes
 Component Set,31,BRANCH,HOT WATER LOOP DEMAND BRANCH 5,ZONEHVAC:BASEBOARD:CONVECTIVE:WATER,ZONE HVAC BASEBOARD CONVECTIVE WATER 5,NODE 86,NODE 87,Hot Water Nodes
 Component Set,32,BRANCH,HOT WATER LOOP DEMAND BYPASS BRANCH,PIPE:ADIABATIC,HOT WATER LOOP DEMAND BYPASS PIPE,HOT WATER LOOP DEMAND BYPASS PIPE INLET NODE,HOT WATER LOOP DEMAND BYPASS PIPE OUTLET NODE,Pipe Nodes
 Component Set,33,BRANCH,HOT WATER LOOP DEMAND OUTLET BRANCH,PIPE:ADIABATIC,HOT WATER LOOP DEMAND OUTLET PIPE,HOT WATER LOOP DEMAND OUTLET PIPE NODE,NODE 8,Pipe Nodes
 Component Set,34,BRANCH,MAIN SERVICE WATER LOOP SUPPLY INLET BRANCH,PUMP:CONSTANTSPEED,MAIN SERVICE WATER LOOP CIRCULATOR PUMP,NODE 88,NODE 94,Water Nodes
 Component Set,35,BRANCH,MAIN SERVICE WATER LOOP SUPPLY BRANCH 1,WATERHEATER:MIXED,6GAL NATURALGAS WATER HEATER - 4KBTU/HR 0.82 THERM EFF,NODE 90,NODE 95,Use Side Water Nodes
 Component Set,36,BRANCH,MAIN SERVICE WATER LOOP SUPPLY BRANCH 2,PIPE:ADIABATIC,PIPE ADIABATIC 3,NODE 96,NODE 97,Pipe Nodes
 Component Set,37,BRANCH,MAIN SERVICE WATER LOOP SUPPLY OUTLET BRANCH,PIPE:ADIABATIC,PIPE ADIABATIC 5,NODE 99,NODE 89,Pipe Nodes
 Component Set,38,BRANCH,MAIN SERVICE WATER LOOP DEMAND INLET BRANCH,PIPE:ADIABATIC,MAIN SERVICE WATER LOOP DEMAND INLET PIPE,NODE 91,MAIN SERVICE WATER LOOP DEMAND INLET PIPE NODE,Pipe Nodes
 Component Set,39,BRANCH,MAIN SERVICE WATER LOOP DEMAND BRANCH 1,PIPE:ADIABATIC,PIPE ADIABATIC 4,NODE 93,NODE 98,Pipe Nodes
 Component Set,40,BRANCH,MAIN SERVICE WATER LOOP DEMAND BRANCH 2,WATERUSE:CONNECTIONS,WATER USE CONNECTIONS 1,NODE 101,NODE 102,DHW Nodes
 Component Set,41,BRANCH,MAIN SERVICE WATER LOOP DEMAND BRANCH 3,WATERUSE:CONNECTIONS,WATER USE CONNECTIONS 2,NODE 103,NODE 104,DHW Nodes
 Component Set,42,BRANCH,MAIN SERVICE WATER LOOP DEMAND BRANCH 4,WATERUSE:CONNECTIONS,WATER USE CONNECTIONS 3,NODE 105,NODE 106,DHW Nodes
 Component Set,43,BRANCH,MAIN SERVICE WATER LOOP DEMAND BRANCH 5,WATERUSE:CONNECTIONS,WATER USE CONNECTIONS 4,NODE 107,NODE 108,DHW Nodes
 Component Set,44,BRANCH,MAIN SERVICE WATER LOOP DEMAND BRANCH 6,WATERUSE:CONNECTIONS,WATER USE CONNECTIONS 5,NODE 109,NODE 110,DHW Nodes
 Component Set,45,BRANCH,MAIN SERVICE WATER LOOP DEMAND BYPASS BRANCH,PIPE:ADIABATIC,MAIN SERVICE WATER LOOP DEMAND BYPASS PIPE,MAIN SERVICE WATER LOOP DEMAND BYPASS PIPE INLET NODE,MAIN SERVICE WATER LOOP DEMAND BYPASS PIPE OUTLET NODE,Pipe Nodes
 Component Set,46,BRANCH,MAIN SERVICE WATER LOOP DEMAND OUTLET BRANCH,PIPE:ADIABATIC,PIPE ADIABATIC 6,NODE 100,NODE 92,Pipe Nodes
 Component Set,47,ZONEHVAC:AIRDISTRIBUTIONUNIT,ADU AIR TERMINAL SINGLE DUCT CONSTANT VOLUME NO REHEAT 1,AIRTERMINAL:SINGLEDUCT:CONSTANTVOLUME:NOREHEAT,AIR TERMINAL SINGLE DUCT CONSTANT VOLUME NO REHEAT 1,NODE 30,NODE 23,Air Nodes
 Component Set,48,ZONEHVAC:AIRDISTRIBUTIONUNIT,ADU AIR TERMINAL SINGLE DUCT CONSTANT VOLUME NO REHEAT 2,AIRTERMINAL:SINGLEDUCT:CONSTANTVOLUME:NOREHEAT,AIR TERMINAL SINGLE DUCT CONSTANT VOLUME NO REHEAT 2,NODE 43,NODE 36,Air Nodes
 Component Set,49,ZONEHVAC:AIRDISTRIBUTIONUNIT,ADU AIR TERMINAL SINGLE DUCT CONSTANT VOLUME NO REHEAT 3,AIRTERMINAL:SINGLEDUCT:CONSTANTVOLUME:NOREHEAT,AIR TERMINAL SINGLE DUCT CONSTANT VOLUME NO REHEAT 3,NODE 57,NODE 50,Air Nodes
 Component Set,50,ZONEHVAC:AIRDISTRIBUTIONUNIT,ADU AIR TERMINAL SINGLE DUCT CONSTANT VOLUME NO REHEAT 4,AIRTERMINAL:SINGLEDUCT:CONSTANTVOLUME:NOREHEAT,AIR TERMINAL SINGLE DUCT CONSTANT VOLUME NO REHEAT 4,NODE 71,NODE 64,Air Nodes
 Component Set,51,ZONEHVAC:AIRDISTRIBUTIONUNIT,ADU AIR TERMINAL SINGLE DUCT CONSTANT VOLUME NO REHEAT 5,AIRTERMINAL:SINGLEDUCT:CONSTANTVOLUME:NOREHEAT,AIR TERMINAL SINGLE DUCT CONSTANT VOLUME NO REHEAT 5,NODE 85,NODE 78,Air Nodes
 Component Set,52,AIRLOOPHVAC:OUTDOORAIRSYSTEM,AIR LOOP HVAC OUTDOOR AIR SYSTEM 1,OUTDOORAIR:MIXER,AIR LOOP HVAC OUTDOOR AIR SYSTEM 1 OUTDOOR AIR MIXER,NODE 112,NODE 28,Air Nodes
 Component Set,53,AIRLOOPHVAC:OUTDOORAIRSYSTEM,AIR LOOP HVAC OUTDOOR AIR SYSTEM 1,HEATEXCHANGER:AIRTOAIR:SENSIBLEANDLATENT,SYS_3|MIXED|SHR>NONE|SC>DX|SH>C-G|SSF>CV|ZH>B-HW|ZC>NONE|SRF>NONE| ERV,NODE 24,NODE 112,Process Air Nodes
 Component Set,54,AIRLOOPHVAC:OUTDOORAIRSYSTEM,AIR LOOP HVAC OUTDOOR AIR SYSTEM 2,OUTDOORAIR:MIXER,AIR LOOP HVAC OUTDOOR AIR SYSTEM 2 OUTDOOR AIR MIXER,NODE 114,NODE 41,Air Nodes
 Component Set,55,AIRLOOPHVAC:OUTDOORAIRSYSTEM,AIR LOOP HVAC OUTDOOR AIR SYSTEM 2,HEATEXCHANGER:AIRTOAIR:SENSIBLEANDLATENT,SYS_3|MIXED|SHR>NONE|SC>DX|SH>C-G|SSF>CV|ZH>B-HW|ZC>NONE|SRF>NONE| 1 ERV,NODE 37,NODE 114,Process Air Nodes
 Component Set,56,AIRLOOPHVAC:OUTDOORAIRSYSTEM,AIR LOOP HVAC OUTDOOR AIR SYSTEM 3,OUTDOORAIR:MIXER,AIR LOOP HVAC OUTDOOR AIR SYSTEM 3 OUTDOOR AIR MIXER,NODE 116,NODE 55,Air Nodes
 Component Set,57,AIRLOOPHVAC:OUTDOORAIRSYSTEM,AIR LOOP HVAC OUTDOOR AIR SYSTEM 3,HEATEXCHANGER:AIRTOAIR:SENSIBLEANDLATENT,SYS_3|MIXED|SHR>NONE|SC>DX|SH>C-G|SSF>CV|ZH>B-HW|ZC>NONE|SRF>NONE| 2 ERV,NODE 51,NODE 116,Process Air Nodes
 Component Set,58,AIRLOOPHVAC:OUTDOORAIRSYSTEM,AIR LOOP HVAC OUTDOOR AIR SYSTEM 4,OUTDOORAIR:MIXER,AIR LOOP HVAC OUTDOOR AIR SYSTEM 4 OUTDOOR AIR MIXER,NODE 118,NODE 69,Air Nodes
 Component Set,59,AIRLOOPHVAC:OUTDOORAIRSYSTEM,AIR LOOP HVAC OUTDOOR AIR SYSTEM 4,HEATEXCHANGER:AIRTOAIR:SENSIBLEANDLATENT,SYS_3|MIXED|SHR>NONE|SC>DX|SH>C-G|SSF>CV|ZH>B-HW|ZC>NONE|SRF>NONE| 3 ERV,NODE 65,NODE 118,Process Air Nodes
 Component Set,60,AIRLOOPHVAC:OUTDOORAIRSYSTEM,AIR LOOP HVAC OUTDOOR AIR SYSTEM 5,OUTDOORAIR:MIXER,AIR LOOP HVAC OUTDOOR AIR SYSTEM 5 OUTDOOR AIR MIXER,NODE 120,NODE 83,Air Nodes
 Component Set,61,AIRLOOPHVAC:OUTDOORAIRSYSTEM,AIR LOOP HVAC OUTDOOR AIR SYSTEM 5,HEATEXCHANGER:AIRTOAIR:SENSIBLEANDLATENT,SYS_3|MIXED|SHR>NONE|SC>DX|SH>C-G|SSF>CV|ZH>B-HW|ZC>NONE|SRF>NONE| 4 ERV,NODE 79,NODE 120,Process Air Nodes
 Component Set,62,COILSYSTEM:COOLING:DX,COILCOOLINGDXSINGLESPEED_DX 29KBTU/HR 15.0SEER COILSYSTEM,COIL:COOLING:DX:SINGLESPEED,COILCOOLINGDXSINGLESPEED_DX 29KBTU/HR 15.0SEER,NODE 28,NODE 27,Air Nodes
 Component Set,63,COILSYSTEM:COOLING:DX,COILCOOLINGDXSINGLESPEED_DX 1 23KBTU/HR 15.0SEER COILSYSTEM,COIL:COOLING:DX:SINGLESPEED,COILCOOLINGDXSINGLESPEED_DX 1 23KBTU/HR 15.0SEER,NODE 41,NODE 40,Air Nodes
 Component Set,64,COILSYSTEM:COOLING:DX,COILCOOLINGDXSINGLESPEED_DX 2 15KBTU/HR 15.0SEER COILSYSTEM,COIL:COOLING:DX:SINGLESPEED,COILCOOLINGDXSINGLESPEED_DX 2 15KBTU/HR 15.0SEER,NODE 55,NODE 54,Air Nodes
 Component Set,65,COILSYSTEM:COOLING:DX,COILCOOLINGDXSINGLESPEED_DX 3 21KBTU/HR 15.0SEER COILSYSTEM,COIL:COOLING:DX:SINGLESPEED,COILCOOLINGDXSINGLESPEED_DX 3 21KBTU/HR 15.0SEER,NODE 69,NODE 68,Air Nodes
 Component Set,66,COILSYSTEM:COOLING:DX,COILCOOLINGDXSINGLESPEED_DX 4 41KBTU/HR 15.0SEER COILSYSTEM,COIL:COOLING:DX:SINGLESPEED,COILCOOLINGDXSINGLESPEED_DX 4 41KBTU/HR 15.0SEER,NODE 83,NODE 82,Air Nodes
! ===============================================================
! <# Plant Loops>,<Number of Plant Loops>
 #Plant Loops,2
! <Plant Loop>,<Plant Loop Name>,<Loop Type>,<Inlet Node Name>,<Outlet Node Name>,<Branch List>,<Connector List>
! <Plant Loop Connector>,<Connector Type>,<Connector Name>,<Loop Name>,<Loop Type>,<Number of Inlets/Outlets>
! <Plant Loop Connector Branches>,<Connector Node Count>,<Connector Type>,<Connector Name>,<Inlet Branch>,<Outlet Branch>,<Loop Name>,<Loop Type>
! <Plant Loop Connector Nodes>,<Connector Node Count>,<Connector Type>,<Connector Name>,<Inlet Node>,<Outlet Node>,<Loop Name>,<Loop Type>
! <Plant Loop Supply Connection>,<Plant Loop Name>,<Supply Side Outlet Node Name>,<Demand Side Inlet Node Name>
! <Plant Loop Return Connection>,<Plant Loop Name>,<Demand Side Outlet Node Name>,<Supply Side Inlet Node Name>
 Plant Loop,HOT WATER LOOP,Demand,NODE 6,NODE 8,HOT WATER LOOP DEMAND BRANCHES,HOT WATER LOOP DEMAND CONNECTOR LIST
   Plant Loop Connector,Splitter,HOT WATER LOOP DEMAND SPLITTER,HOT WATER LOOP,Demand,6
     Plant Loop Connector Branches,1,Splitter,HOT WATER LOOP DEMAND SPLITTER,HOT WATER LOOP DEMAND INLET BRANCH,HOT WATER LOOP DEMAND BRANCH 1,HOT WATER LOOP,Demand
     Plant Loop Connector Nodes,   1,Splitter,HOT WATER LOOP DEMAND SPLITTER,HOT WATER LOOP DEMAND INLET PIPE NODE,NODE 9,HOT WATER LOOP,Demand
     Plant Loop Connector Branches,2,Splitter,HOT WATER LOOP DEMAND SPLITTER,HOT WATER LOOP DEMAND INLET BRANCH,HOT WATER LOOP DEMAND BRANCH 2,HOT WATER LOOP,Demand
     Plant Loop Connector Nodes,   2,Splitter,HOT WATER LOOP DEMAND SPLITTER,HOT WATER LOOP DEMAND INLET PIPE NODE,NODE 44,HOT WATER LOOP,Demand
     Plant Loop Connector Branches,3,Splitter,HOT WATER LOOP DEMAND SPLITTER,HOT WATER LOOP DEMAND INLET BRANCH,HOT WATER LOOP DEMAND BRANCH 3,HOT WATER LOOP,Demand
     Plant Loop Connector Nodes,   3,Splitter,HOT WATER LOOP DEMAND SPLITTER,HOT WATER LOOP DEMAND INLET PIPE NODE,NODE 58,HOT WATER LOOP,Demand
     Plant Loop Connector Branches,4,Splitter,HOT WATER LOOP DEMAND SPLITTER,HOT WATER LOOP DEMAND INLET BRANCH,HOT WATER LOOP DEMAND BRANCH 4,HOT WATER LOOP,Demand
     Plant Loop Connector Nodes,   4,Splitter,HOT WATER LOOP DEMAND SPLITTER,HOT WATER LOOP DEMAND INLET PIPE NODE,NODE 72,HOT WATER LOOP,Demand
     Plant Loop Connector Branches,5,Splitter,HOT WATER LOOP DEMAND SPLITTER,HOT WATER LOOP DEMAND INLET BRANCH,HOT WATER LOOP DEMAND BRANCH 5,HOT WATER LOOP,Demand
     Plant Loop Connector Nodes,   5,Splitter,HOT WATER LOOP DEMAND SPLITTER,HOT WATER LOOP DEMAND INLET PIPE NODE,NODE 86,HOT WATER LOOP,Demand
     Plant Loop Connector Branches,6,Splitter,HOT WATER LOOP DEMAND SPLITTER,HOT WATER LOOP DEMAND INLET BRANCH,HOT WATER LOOP DEMAND BYPASS BRANCH,HOT WATER LOOP,Demand
     Plant Loop Connector Nodes,   6,Splitter,HOT WATER LOOP DEMAND SPLITTER,HOT WATER LOOP DEMAND INLET PIPE NODE,HOT WATER LOOP DEMAND BYPASS PIPE INLET NODE,HOT WATER LOOP,Demand
   Plant Loop Connector,Mixer,HOT WATER LOOP DEMAND MIXER,HOT WATER LOOP,Demand,6
     Plant Loop Connector Branches,1,Mixer,HOT WATER LOOP DEMAND MIXER,HOT WATER LOOP DEMAND BRANCH 1,HOT WATER LOOP DEMAND OUTLET BRANCH,HOT WATER LOOP,Demand
     Plant Loop Connector Nodes,   1,Mixer,HOT WATER LOOP DEMAND MIXER,NODE 31,HOT WATER LOOP DEMAND OUTLET PIPE NODE,HOT WATER LOOP,Demand
     Plant Loop Connector Branches,2,Mixer,HOT WATER LOOP DEMAND MIXER,HOT WATER LOOP DEMAND BRANCH 2,HOT WATER LOOP DEMAND OUTLET BRANCH,HOT WATER LOOP,Demand
     Plant Loop Connector Nodes,   2,Mixer,HOT WATER LOOP DEMAND MIXER,NODE 45,HOT WATER LOOP DEMAND OUTLET PIPE NODE,HOT WATER LOOP,Demand
     Plant Loop Connector Branches,3,Mixer,HOT WATER LOOP DEMAND MIXER,HOT WATER LOOP DEMAND BRANCH 3,HOT WATER LOOP DEMAND OUTLET BRANCH,HOT WATER LOOP,Demand
     Plant Loop Connector Nodes,   3,Mixer,HOT WATER LOOP DEMAND MIXER,NODE 59,HOT WATER LOOP DEMAND OUTLET PIPE NODE,HOT WATER LOOP,Demand
     Plant Loop Connector Branches,4,Mixer,HOT WATER LOOP DEMAND MIXER,HOT WATER LOOP DEMAND BRANCH 4,HOT WATER LOOP DEMAND OUTLET BRANCH,HOT WATER LOOP,Demand
     Plant Loop Connector Nodes,   4,Mixer,HOT WATER LOOP DEMAND MIXER,NODE 73,HOT WATER LOOP DEMAND OUTLET PIPE NODE,HOT WATER LOOP,Demand
     Plant Loop Connector Branches,5,Mixer,HOT WATER LOOP DEMAND MIXER,HOT WATER LOOP DEMAND BRANCH 5,HOT WATER LOOP DEMAND OUTLET BRANCH,HOT WATER LOOP,Demand
     Plant Loop Connector Nodes,   5,Mixer,HOT WATER LOOP DEMAND MIXER,NODE 87,HOT WATER LOOP DEMAND OUTLET PIPE NODE,HOT WATER LOOP,Demand
     Plant Loop Connector Branches,6,Mixer,HOT WATER LOOP DEMAND MIXER,HOT WATER LOOP DEMAND BYPASS BRANCH,HOT WATER LOOP DEMAND OUTLET BRANCH,HOT WATER LOOP,Demand
     Plant Loop Connector Nodes,   6,Mixer,HOT WATER LOOP DEMAND MIXER,HOT WATER LOOP DEMAND BYPASS PIPE OUTLET NODE,HOT WATER LOOP DEMAND OUTLET PIPE NODE,HOT WATER LOOP,Demand
 Plant Loop,HOT WATER LOOP,Supply,NODE 2,NODE 3,HOT WATER LOOP SUPPLY BRANCHES,HOT WATER LOOP SUPPLY CONNECTOR LIST
   Plant Loop Connector,Splitter,HOT WATER LOOP SUPPLY SPLITTER,HOT WATER LOOP,Supply,3
     Plant Loop Connector Branches,1,Splitter,HOT WATER LOOP SUPPLY SPLITTER,HOT WATER LOOP SUPPLY INLET BRANCH,HOT WATER LOOP SUPPLY BRANCH 1,HOT WATER LOOP,Supply
     Plant Loop Connector Nodes,   1,Splitter,HOT WATER LOOP SUPPLY SPLITTER,NODE 11,NODE 5,HOT WATER LOOP,Supply
     Plant Loop Connector Branches,2,Splitter,HOT WATER LOOP SUPPLY SPLITTER,HOT WATER LOOP SUPPLY INLET BRANCH,HOT WATER LOOP SUPPLY BRANCH 2,HOT WATER LOOP,Supply
     Plant Loop Connector Nodes,   2,Splitter,HOT WATER LOOP SUPPLY SPLITTER,NODE 11,NODE 14,HOT WATER LOOP,Supply
     Plant Loop Connector Branches,3,Splitter,HOT WATER LOOP SUPPLY SPLITTER,HOT WATER LOOP SUPPLY INLET BRANCH,HOT WATER LOOP SUPPLY BRANCH 3,HOT WATER LOOP,Supply
     Plant Loop Connector Nodes,   3,Splitter,HOT WATER LOOP SUPPLY SPLITTER,NODE 11,NODE 16,HOT WATER LOOP,Supply
   Plant Loop Connector,Mixer,HOT WATER LOOP SUPPLY MIXER,HOT WATER LOOP,Supply,3
     Plant Loop Connector Branches,1,Mixer,HOT WATER LOOP SUPPLY MIXER,HOT WATER LOOP SUPPLY BRANCH 1,HOT WATER LOOP SUPPLY OUTLET BRANCH,HOT WATER LOOP,Supply
     Plant Loop Connector Nodes,   1,Mixer,HOT WATER LOOP SUPPLY MIXER,NODE 12,NODE 18,HOT WATER LOOP,Supply
     Plant Loop Connector Branches,2,Mixer,HOT WATER LOOP SUPPLY MIXER,HOT WATER LOOP SUPPLY BRANCH 2,HOT WATER LOOP SUPPLY OUTLET BRANCH,HOT WATER LOOP,Supply
     Plant Loop Connector Nodes,   2,Mixer,HOT WATER LOOP SUPPLY MIXER,NODE 15,NODE 18,HOT WATER LOOP,Supply
     Plant Loop Connector Branches,3,Mixer,HOT WATER LOOP SUPPLY MIXER,HOT WATER LOOP SUPPLY BRANCH 3,HOT WATER LOOP SUPPLY OUTLET BRANCH,HOT WATER LOOP,Supply
     Plant Loop Connector Nodes,   3,Mixer,HOT WATER LOOP SUPPLY MIXER,NODE 17,NODE 18,HOT WATER LOOP,Supply
 Plant Loop Supply Connection,HOT WATER LOOP,NODE 3,NODE 6
 Plant Loop Return Connection,HOT WATER LOOP,NODE 8,NODE 2
 Plant Loop,MAIN SERVICE WATER LOOP,Demand,NODE 91,NODE 92,MAIN SERVICE WATER LOOP DEMAND BRANCHES,MAIN SERVICE WATER LOOP DEMAND CONNECTOR LIST
   Plant Loop Connector,Splitter,MAIN SERVICE WATER LOOP DEMAND SPLITTER,MAIN SERVICE WATER LOOP,Demand,7
     Plant Loop Connector Branches,1,Splitter,MAIN SERVICE WATER LOOP DEMAND SPLITTER,MAIN SERVICE WATER LOOP DEMAND INLET BRANCH,MAIN SERVICE WATER LOOP DEMAND BRANCH 1,MAIN SERVICE WATER LOOP,Demand
     Plant Loop Connector Nodes,   1,Splitter,MAIN SERVICE WATER LOOP DEMAND SPLITTER,MAIN SERVICE WATER LOOP DEMAND INLET PIPE NODE,NODE 93,MAIN SERVICE WATER LOOP,Demand
     Plant Loop Connector Branches,2,Splitter,MAIN SERVICE WATER LOOP DEMAND SPLITTER,MAIN SERVICE WATER LOOP DEMAND INLET BRANCH,MAIN SERVICE WATER LOOP DEMAND BRANCH 2,MAIN SERVICE WATER LOOP,Demand
     Plant Loop Connector Nodes,   2,Splitter,MAIN SERVICE WATER LOOP DEMAND SPLITTER,MAIN SERVICE WATER LOOP DEMAND INLET PIPE NODE,NODE 101,MAIN SERVICE WATER LOOP,Demand
     Plant Loop Connector Branches,3,Splitter,MAIN SERVICE WATER LOOP DEMAND SPLITTER,MAIN SERVICE WATER LOOP DEMAND INLET BRANCH,MAIN SERVICE WATER LOOP DEMAND BRANCH 3,MAIN SERVICE WATER LOOP,Demand
     Plant Loop Connector Nodes,   3,Splitter,MAIN SERVICE WATER LOOP DEMAND SPLITTER,MAIN SERVICE WATER LOOP DEMAND INLET PIPE NODE,NODE 103,MAIN SERVICE WATER LOOP,Demand
     Plant Loop Connector Branches,4,Splitter,MAIN SERVICE WATER LOOP DEMAND SPLITTER,MAIN SERVICE WATER LOOP DEMAND INLET BRANCH,MAIN SERVICE WATER LOOP DEMAND BRANCH 4,MAIN SERVICE WATER LOOP,Demand
     Plant Loop Connector Nodes,   4,Splitter,MAIN SERVICE WATER LOOP DEMAND SPLITTER,MAIN SERVICE WATER LOOP DEMAND INLET PIPE NODE,NODE 105,MAIN SERVICE WATER LOOP,Demand
     Plant Loop Connector Branches,5,Splitter,MAIN SERVICE WATER LOOP DEMAND SPLITTER,MAIN SERVICE WATER LOOP DEMAND INLET BRANCH,MAIN SERVICE WATER LOOP DEMAND BRANCH 5,MAIN SERVICE WATER LOOP,Demand
     Plant Loop Connector Nodes,   5,Splitter,MAIN SERVICE WATER LOOP DEMAND SPLITTER,MAIN SERVICE WATER LOOP DEMAND INLET PIPE NODE,NODE 107,MAIN SERVICE WATER LOOP,Demand
     Plant Loop Connector Branches,6,Splitter,MAIN SERVICE WATER LOOP DEMAND SPLITTER,MAIN SERVICE WATER LOOP DEMAND INLET BRANCH,MAIN SERVICE WATER LOOP DEMAND BRANCH 6,MAIN SERVICE WATER LOOP,Demand
     Plant Loop Connector Nodes,   6,Splitter,MAIN SERVICE WATER LOOP DEMAND SPLITTER,MAIN SERVICE WATER LOOP DEMAND INLET PIPE NODE,NODE 109,MAIN SERVICE WATER LOOP,Demand
     Plant Loop Connector Branches,7,Splitter,MAIN SERVICE WATER LOOP DEMAND SPLITTER,MAIN SERVICE WATER LOOP DEMAND INLET BRANCH,MAIN SERVICE WATER LOOP DEMAND BYPASS BRANCH,MAIN SERVICE WATER LOOP,Demand
     Plant Loop Connector Nodes,   7,Splitter,MAIN SERVICE WATER LOOP DEMAND SPLITTER,MAIN SERVICE WATER LOOP DEMAND INLET PIPE NODE,MAIN SERVICE WATER LOOP DEMAND BYPASS PIPE INLET NODE,MAIN SERVICE WATER LOOP,Demand
   Plant Loop Connector,Mixer,MAIN SERVICE WATER LOOP DEMAND MIXER,MAIN SERVICE WATER LOOP,Demand,7
     Plant Loop Connector Branches,1,Mixer,MAIN SERVICE WATER LOOP DEMAND MIXER,MAIN SERVICE WATER LOOP DEMAND BRANCH 1,MAIN SERVICE WATER LOOP DEMAND OUTLET BRANCH,MAIN SERVICE WATER LOOP,Demand
     Plant Loop Connector Nodes,   1,Mixer,MAIN SERVICE WATER LOOP DEMAND MIXER,NODE 98,NODE 100,MAIN SERVICE WATER LOOP,Demand
     Plant Loop Connector Branches,2,Mixer,MAIN SERVICE WATER LOOP DEMAND MIXER,MAIN SERVICE WATER LOOP DEMAND BRANCH 2,MAIN SERVICE WATER LOOP DEMAND OUTLET BRANCH,MAIN SERVICE WATER LOOP,Demand
     Plant Loop Connector Nodes,   2,Mixer,MAIN SERVICE WATER LOOP DEMAND MIXER,NODE 102,NODE 100,MAIN SERVICE WATER LOOP,Demand
     Plant Loop Connector Branches,3,Mixer,MAIN SERVICE WATER LOOP DEMAND MIXER,MAIN SERVICE WATER LOOP DEMAND BRANCH 3,MAIN SERVICE WATER LOOP DEMAND OUTLET BRANCH,MAIN SERVICE WATER LOOP,Demand
     Plant Loop Connector Nodes,   3,Mixer,MAIN SERVICE WATER LOOP DEMAND MIXER,NODE 104,NODE 100,MAIN SERVICE WATER LOOP,Demand
     Plant Loop Connector Branches,4,Mixer,MAIN SERVICE WATER LOOP DEMAND MIXER,MAIN SERVICE WATER LOOP DEMAND BRANCH 4,MAIN SERVICE WATER LOOP DEMAND OUTLET BRANCH,MAIN SERVICE WATER LOOP,Demand
     Plant Loop Connector Nodes,   4,Mixer,MAIN SERVICE WATER LOOP DEMAND MIXER,NODE 106,NODE 100,MAIN SERVICE WATER LOOP,Demand
     Plant Loop Connector Branches,5,Mixer,MAIN SERVICE WATER LOOP DEMAND MIXER,MAIN SERVICE WATER LOOP DEMAND BRANCH 5,MAIN SERVICE WATER LOOP DEMAND OUTLET BRANCH,MAIN SERVICE WATER LOOP,Demand
     Plant Loop Connector Nodes,   5,Mixer,MAIN SERVICE WATER LOOP DEMAND MIXER,NODE 108,NODE 100,MAIN SERVICE WATER LOOP,Demand
     Plant Loop Connector Branches,6,Mixer,MAIN SERVICE WATER LOOP DEMAND MIXER,MAIN SERVICE WATER LOOP DEMAND BRANCH 6,MAIN SERVICE WATER LOOP DEMAND OUTLET BRANCH,MAIN SERVICE WATER LOOP,Demand
     Plant Loop Connector Nodes,   6,Mixer,MAIN SERVICE WATER LOOP DEMAND MIXER,NODE 110,NODE 100,MAIN SERVICE WATER LOOP,Demand
     Plant Loop Connector Branches,7,Mixer,MAIN SERVICE WATER LOOP DEMAND MIXER,MAIN SERVICE WATER LOOP DEMAND BYPASS BRANCH,MAIN SERVICE WATER LOOP DEMAND OUTLET BRANCH,MAIN SERVICE WATER LOOP,Demand
     Plant Loop Connector Nodes,   7,Mixer,MAIN SERVICE WATER LOOP DEMAND MIXER,MAIN SERVICE WATER LOOP DEMAND BYPASS PIPE OUTLET NODE,NODE 100,MAIN SERVICE WATER LOOP,Demand
 Plant Loop,MAIN SERVICE WATER LOOP,Supply,NODE 88,NODE 89,MAIN SERVICE WATER LOOP SUPPLY BRANCHES,MAIN SERVICE WATER LOOP SUPPLY CONNECTOR LIST
   Plant Loop Connector,Splitter,MAIN SERVICE WATER LOOP SUPPLY SPLITTER,MAIN SERVICE WATER LOOP,Supply,2
     Plant Loop Connector Branches,1,Splitter,MAIN SERVICE WATER LOOP SUPPLY SPLITTER,MAIN SERVICE WATER LOOP SUPPLY INLET BRANCH,MAIN SERVICE WATER LOOP SUPPLY BRANCH 1,MAIN SERVICE WATER LOOP,Supply
     Plant Loop Connector Nodes,   1,Splitter,MAIN SERVICE WATER LOOP SUPPLY SPLITTER,NODE 94,NODE 90,MAIN SERVICE WATER LOOP,Supply
     Plant Loop Connector Branches,2,Splitter,MAIN SERVICE WATER LOOP SUPPLY SPLITTER,MAIN SERVICE WATER LOOP SUPPLY INLET BRANCH,MAIN SERVICE WATER LOOP SUPPLY BRANCH 2,MAIN SERVICE WATER LOOP,Supply
     Plant Loop Connector Nodes,   2,Splitter,MAIN SERVICE WATER LOOP SUPPLY SPLITTER,NODE 94,NODE 96,MAIN SERVICE WATER LOOP,Supply
   Plant Loop Connector,Mixer,MAIN SERVICE WATER LOOP SUPPLY MIXER,MAIN SERVICE WATER LOOP,Supply,2
     Plant Loop Connector Branches,1,Mixer,MAIN SERVICE WATER LOOP SUPPLY MIXER,MAIN SERVICE WATER LOOP SUPPLY BRANCH 1,MAIN SERVICE WATER LOOP SUPPLY OUTLET BRANCH,MAIN SERVICE WATER LOOP,Supply
     Plant Loop Connector Nodes,   1,Mixer,MAIN SERVICE WATER LOOP SUPPLY MIXER,NODE 95,NODE 99,MAIN SERVICE WATER LOOP,Supply
     Plant Loop Connector Branches,2,Mixer,MAIN SERVICE WATER LOOP SUPPLY MIXER,MAIN SERVICE WATER LOOP SUPPLY BRANCH 2,MAIN SERVICE WATER LOOP SUPPLY OUTLET BRANCH,MAIN SERVICE WATER LOOP,Supply
     Plant Loop Connector Nodes,   2,Mixer,MAIN SERVICE WATER LOOP SUPPLY MIXER,NODE 97,NODE 99,MAIN SERVICE WATER LOOP,Supply
 Plant Loop Supply Connection,MAIN SERVICE WATER LOOP,NODE 89,NODE 91
 Plant Loop Return Connection,MAIN SERVICE WATER LOOP,NODE 92,NODE 88
! ===============================================================
! <# Condenser Loops>,<Number of Condenser Loops>
 #Condenser Loops,0
! <Condenser Loop>,<Condenser Loop Name>,<Loop Type>,<Inlet Node Name>,<Outlet Node Name>,<Branch List>,<Connector List>
! <Condenser Loop Connector>,<Connector Type>,<Connector Name>,<Loop Name>,<Loop Type>,<Number of Inlets/Outlets>
! <Condenser Loop Connector Branches>,<Connector Node Count>,<Connector Type>,<Connector Name>,<Inlet Branch>,<Outlet Branch>,<Loop Name>,<Loop Type>
! <Condenser Loop Connector Nodes>,<Connector Node Count>,<Connector Type>,<Connector Name>,<Inlet Node>,<Outlet Node>,<Loop Name>,<Loop Type>
! <Condenser Loop Supply Connection>,<Condenser Loop Name>,<Supply Side Outlet Node Name>,<Demand Side Inlet Node Name>
! <Condenser Loop Return Connection>,<Condenser Loop Name>,<Demand Side Outlet Node Name>,<Supply Side Inlet Node Name>
! ===============================================================
! <# Controlled Zones>,<Number of Controlled Zones>
 #Controlled Zones,5
! <Controlled Zone>,<Controlled Zone Name>,<Equip List Name>,<Control List Name>,<Zone Node Name>,<# Inlet Nodes>,<# Exhaust Nodes>,<# Return Nodes>
! <Controlled Zone Inlet>,<Inlet Node Count>,<Controlled Zone Name>,<Supply Air Inlet Node Name>,<SD Sys:Cooling/Heating [DD:Cooling] Inlet Node Name>,<DD Sys:Heating Inlet Node Name>
! <Controlled Zone Exhaust>,<Exhaust Node Count>,<Controlled Zone Name>,<Exhaust Air Node Name>
 Controlled Zone,ALL_ST=WHOLEBUILDING_FL=STORY 1_SCH=A,ALL_ST=WHOLEBUILDING_FL=STORY 1_SCH=A EQUIPMENT LIST,,NODE 1,1,0,1
   Controlled Zone Inlet,1,ALL_ST=WHOLEBUILDING_FL=STORY 1_SCH=A,NODE 23,NODE 30,N/A
   Controlled Zone Return,1,ALL_ST=WHOLEBUILDING_FL=STORY 1_SCH=A,NODE 29
 Controlled Zone,ALL_ST=WHOLEBUILDING_FL=STORY 1_SCH=A 5,ALL_ST=WHOLEBUILDING_FL=STORY 1_SCH=A 5 EQUIPMENT LIST,,NODE 4,1,0,1
   Controlled Zone Inlet,1,ALL_ST=WHOLEBUILDING_FL=STORY 1_SCH=A 5,NODE 36,NODE 43,N/A
   Controlled Zone Return,1,ALL_ST=WHOLEBUILDING_FL=STORY 1_SCH=A 5,NODE 42
 Controlled Zone,ALL_ST=WHOLEBUILDING_FL=STORY 1_SCH=A 6,ALL_ST=WHOLEBUILDING_FL=STORY 1_SCH=A 6 EQUIPMENT LIST,,NODE 7,1,0,1
   Controlled Zone Inlet,1,ALL_ST=WHOLEBUILDING_FL=STORY 1_SCH=A 6,NODE 50,NODE 57,N/A
   Controlled Zone Return,1,ALL_ST=WHOLEBUILDING_FL=STORY 1_SCH=A 6,NODE 56
 Controlled Zone,ALL_ST=WHOLEBUILDING_FL=STORY 1_SCH=A 7,ALL_ST=WHOLEBUILDING_FL=STORY 1_SCH=A 7 EQUIPMENT LIST,,NODE 10,1,0,1
   Controlled Zone Inlet,1,ALL_ST=WHOLEBUILDING_FL=STORY 1_SCH=A 7,NODE 64,NODE 71,N/A
   Controlled Zone Return,1,ALL_ST=WHOLEBUILDING_FL=STORY 1_SCH=A 7,NODE 70
 Controlled Zone,ALL_ST=WHOLEBUILDING_FL=STORY 1_SCH=A 8,ALL_ST=WHOLEBUILDING_FL=STORY 1_SCH=A 8 EQUIPMENT LIST,,NODE 13,1,0,1
   Controlled Zone Inlet,1,ALL_ST=WHOLEBUILDING_FL=STORY 1_SCH=A 8,NODE 78,NODE 85,N/A
   Controlled Zone Return,1,ALL_ST=WHOLEBUILDING_FL=STORY 1_SCH=A 8,NODE 84
! ===============================================================
! <#Zone Equipment Lists>,<Number of Zone Equipment Lists>
 #Zone Equipment Lists,5
! <Zone Equipment List>,<Zone Equipment List Count>,<Zone Equipment List Name>,<Zone Name>,<Number of Components>
! <Zone Equipment Component>,<Component Count>,<Component Type>,<Component Name>,<Zone Name>,<Heating Priority>,<Cooling Priority>
 Zone Equipment List,1,ALL_ST=WHOLEBUILDING_FL=STORY 1_SCH=A EQUIPMENT LIST,ALL_ST=WHOLEBUILDING_FL=STORY 1_SCH=A,2
   Zone Equipment Component,1,ZONEHVAC:AIRDISTRIBUTIONUNIT,ADU AIR TERMINAL SINGLE DUCT CONSTANT VOLUME NO REHEAT 1,ALL_ST=WHOLEBUILDING_FL=STORY 1_SCH=A,1,1
   Zone Equipment Component,2,ZONEHVAC:BASEBOARD:CONVECTIVE:WATER,ZONE HVAC BASEBOARD CONVECTIVE WATER 1,ALL_ST=WHOLEBUILDING_FL=STORY 1_SCH=A,2,2
 Zone Equipment List,2,ALL_ST=WHOLEBUILDING_FL=STORY 1_SCH=A 5 EQUIPMENT LIST,ALL_ST=WHOLEBUILDING_FL=STORY 1_SCH=A 5,2
   Zone Equipment Component,1,ZONEHVAC:AIRDISTRIBUTIONUNIT,ADU AIR TERMINAL SINGLE DUCT CONSTANT VOLUME NO REHEAT 2,ALL_ST=WHOLEBUILDING_FL=STORY 1_SCH=A 5,1,1
   Zone Equipment Component,2,ZONEHVAC:BASEBOARD:CONVECTIVE:WATER,ZONE HVAC BASEBOARD CONVECTIVE WATER 2,ALL_ST=WHOLEBUILDING_FL=STORY 1_SCH=A 5,2,2
 Zone Equipment List,3,ALL_ST=WHOLEBUILDING_FL=STORY 1_SCH=A 6 EQUIPMENT LIST,ALL_ST=WHOLEBUILDING_FL=STORY 1_SCH=A 6,2
   Zone Equipment Component,1,ZONEHVAC:AIRDISTRIBUTIONUNIT,ADU AIR TERMINAL SINGLE DUCT CONSTANT VOLUME NO REHEAT 3,ALL_ST=WHOLEBUILDING_FL=STORY 1_SCH=A 6,1,1
   Zone Equipment Component,2,ZONEHVAC:BASEBOARD:CONVECTIVE:WATER,ZONE HVAC BASEBOARD CONVECTIVE WATER 3,ALL_ST=WHOLEBUILDING_FL=STORY 1_SCH=A 6,2,2
 Zone Equipment List,4,ALL_ST=WHOLEBUILDING_FL=STORY 1_SCH=A 7 EQUIPMENT LIST,ALL_ST=WHOLEBUILDING_FL=STORY 1_SCH=A 7,2
   Zone Equipment Component,1,ZONEHVAC:AIRDISTRIBUTIONUNIT,ADU AIR TERMINAL SINGLE DUCT CONSTANT VOLUME NO REHEAT 4,ALL_ST=WHOLEBUILDING_FL=STORY 1_SCH=A 7,1,1
   Zone Equipment Component,2,ZONEHVAC:BASEBOARD:CONVECTIVE:WATER,ZONE HVAC BASEBOARD CONVECTIVE WATER 4,ALL_ST=WHOLEBUILDING_FL=STORY 1_SCH=A 7,2,2
 Zone Equipment List,5,ALL_ST=WHOLEBUILDING_FL=STORY 1_SCH=A 8 EQUIPMENT LIST,ALL_ST=WHOLEBUILDING_FL=STORY 1_SCH=A 8,2
   Zone Equipment Component,1,ZONEHVAC:AIRDISTRIBUTIONUNIT,ADU AIR TERMINAL SINGLE DUCT CONSTANT VOLUME NO REHEAT 5,ALL_ST=WHOLEBUILDING_FL=STORY 1_SCH=A 8,1,1
   Zone Equipment Component,2,ZONEHVAC:BASEBOARD:CONVECTIVE:WATER,ZONE HVAC BASEBOARD CONVECTIVE WATER 5,ALL_ST=WHOLEBUILDING_FL=STORY 1_SCH=A 8,2,2
! ===============================================================
! <#AirLoopHVACs>,<Number of AirLoopHVACs>
 #AirLoopHVACs,5
! <AirLoopHVAC>,<Air Loop Name>,<# Return Nodes>,<# Supply Nodes>,<# Zones Cooled>,<# Zones Heated>,<Outdoor Air Used>
! <AirLoop Return Connections>,<Connection Count>,<AirLoopHVAC Name>,<Zn Eqp Return Node #>,<Zn Eqp Return Node Name>,<AirLoop Return Node #>,<Air Loop Return Node Name>
! <AirLoop Supply Connections>,<Connection Count>,<AirLoopHVAC Name>,<Zn Eqp Supply Node #>,<Zn Eqp Supply Node Name>,<AirLoop Supply Node #>,<Air Loop Supply Node Name>
! <Cooled Zone Info>,<Cooled Zone Count>,<Cooled Zone Name>,<Cooled Zone Inlet Node #>,<Cooled Zone Inlet Node Name>,<AirLoopHVAC Name>
! <Heated Zone Info>,<Heated Zone Count>,<Heated Zone Name>,<Heated Zone Inlet Node #>,<Heated Zone Inlet Node Name>,<AirLoopHVAC Name>
! <Outdoor Air Connections>,<OA Inlet Node #>,<OA Return Air Inlet Node Name>,<OA Outlet Node #>,<OA Mixed Air Outlet Node Name>,<AirLoopHVAC Name>
! <AirLoopHVAC Connector>,<Connector Type>,<Connector Name>,<Loop Name>,<Loop Type>,<Number of Inlets/Outlets>
! <AirLoopHVAC Connector Branches>,<Connector Node Count>,<Connector Type>,<Connector Name>,<Inlet Branch>,<Outlet Branch>,<Loop Name>,<Loop Type>
! <AirLoopHVAC Connector Nodes>,<Connector Node Count>,<Connector Type>,<Connector Name>,<Inlet Node>,<Outlet Node>,<Loop Name>,<Loop Type>
 AirLoopHVAC,SYS_3|MIXED|SHR>ERV|SC>DX|SH>C-G|SSF>CV|ZH>B-HW|ZC>NONE|SRF>NONE|,1,1,1,0,Yes
   AirLoop Return Connections,1,SYS_3|MIXED|SHR>ERV|SC>DX|SH>C-G|SSF>CV|ZH>B-HW|ZC>NONE|SRF>NONE|,98,NODE 22,21,NODE 19
   AirLoop Supply Connections,1,SYS_3|MIXED|SHR>ERV|SC>DX|SH>C-G|SSF>CV|ZH>B-HW|ZC>NONE|SRF>NONE|,12,NODE 21,11,NODE 20
   Cooled Zone Info,1,ALL_ST=WHOLEBUILDING_FL=STORY 1_SCH=A,1,NODE 23,SYS_3|MIXED|SHR>ERV|SC>DX|SH>C-G|SSF>CV|ZH>B-HW|ZC>NONE|SRF>NONE|
   Outdoor Air Connections,21,NODE 19,22,NODE 28,SYS_3|MIXED|SHR>ERV|SC>DX|SH>C-G|SSF>CV|ZH>B-HW|ZC>NONE|SRF>NONE|
 AirLoopHVAC,SYS_3|MIXED|SHR>ERV|SC>DX|SH>C-G|SSF>CV|ZH>B-HW|ZC>NONE|SRF>NONE| 1,1,1,1,0,Yes
   AirLoop Return Connections,1,SYS_3|MIXED|SHR>ERV|SC>DX|SH>C-G|SSF>CV|ZH>B-HW|ZC>NONE|SRF>NONE| 1,99,NODE 35,25,NODE 32
   AirLoop Supply Connections,1,SYS_3|MIXED|SHR>ERV|SC>DX|SH>C-G|SSF>CV|ZH>B-HW|ZC>NONE|SRF>NONE| 1,14,NODE 34,13,NODE 33
   Cooled Zone Info,1,ALL_ST=WHOLEBUILDING_FL=STORY 1_SCH=A 5,3,NODE 36,SYS_3|MIXED|SHR>ERV|SC>DX|SH>C-G|SSF>CV|ZH>B-HW|ZC>NONE|SRF>NONE| 1
   Outdoor Air Connections,25,NODE 32,26,NODE 41,SYS_3|MIXED|SHR>ERV|SC>DX|SH>C-G|SSF>CV|ZH>B-HW|ZC>NONE|SRF>NONE| 1
 AirLoopHVAC,SYS_3|MIXED|SHR>ERV|SC>DX|SH>C-G|SSF>CV|ZH>B-HW|ZC>NONE|SRF>NONE| 2,1,1,1,0,Yes
   AirLoop Return Connections,1,SYS_3|MIXED|SHR>ERV|SC>DX|SH>C-G|SSF>CV|ZH>B-HW|ZC>NONE|SRF>NONE| 2,100,NODE 49,29,NODE 46
   AirLoop Supply Connections,1,SYS_3|MIXED|SHR>ERV|SC>DX|SH>C-G|SSF>CV|ZH>B-HW|ZC>NONE|SRF>NONE| 2,16,NODE 48,15,NODE 47
   Cooled Zone Info,1,ALL_ST=WHOLEBUILDING_FL=STORY 1_SCH=A 6,5,NODE 50,SYS_3|MIXED|SHR>ERV|SC>DX|SH>C-G|SSF>CV|ZH>B-HW|ZC>NONE|SRF>NONE| 2
   Outdoor Air Connections,29,NODE 46,30,NODE 55,SYS_3|MIXED|SHR>ERV|SC>DX|SH>C-G|SSF>CV|ZH>B-HW|ZC>NONE|SRF>NONE| 2
 AirLoopHVAC,SYS_3|MIXED|SHR>ERV|SC>DX|SH>C-G|SSF>CV|ZH>B-HW|ZC>NONE|SRF>NONE| 3,1,1,1,0,Yes
   AirLoop Return Connections,1,SYS_3|MIXED|SHR>ERV|SC>DX|SH>C-G|SSF>CV|ZH>B-HW|ZC>NONE|SRF>NONE| 3,101,NODE 63,33,NODE 60
   AirLoop Supply Connections,1,SYS_3|MIXED|SHR>ERV|SC>DX|SH>C-G|SSF>CV|ZH>B-HW|ZC>NONE|SRF>NONE| 3,18,NODE 62,17,NODE 61
   Cooled Zone Info,1,ALL_ST=WHOLEBUILDING_FL=STORY 1_SCH=A 7,7,NODE 64,SYS_3|MIXED|SHR>ERV|SC>DX|SH>C-G|SSF>CV|ZH>B-HW|ZC>NONE|SRF>NONE| 3
   Outdoor Air Connections,33,NODE 60,34,NODE 69,SYS_3|MIXED|SHR>ERV|SC>DX|SH>C-G|SSF>CV|ZH>B-HW|ZC>NONE|SRF>NONE| 3
 AirLoopHVAC,SYS_3|MIXED|SHR>ERV|SC>DX|SH>C-G|SSF>CV|ZH>B-HW|ZC>NONE|SRF>NONE| 4,1,1,1,0,Yes
   AirLoop Return Connections,1,SYS_3|MIXED|SHR>ERV|SC>DX|SH>C-G|SSF>CV|ZH>B-HW|ZC>NONE|SRF>NONE| 4,102,NODE 77,37,NODE 74
   AirLoop Supply Connections,1,SYS_3|MIXED|SHR>ERV|SC>DX|SH>C-G|SSF>CV|ZH>B-HW|ZC>NONE|SRF>NONE| 4,20,NODE 76,19,NODE 75
   Cooled Zone Info,1,ALL_ST=WHOLEBUILDING_FL=STORY 1_SCH=A 8,9,NODE 78,SYS_3|MIXED|SHR>ERV|SC>DX|SH>C-G|SSF>CV|ZH>B-HW|ZC>NONE|SRF>NONE| 4
   Outdoor Air Connections,37,NODE 74,38,NODE 83,SYS_3|MIXED|SHR>ERV|SC>DX|SH>C-G|SSF>CV|ZH>B-HW|ZC>NONE|SRF>NONE| 4
! ===============================================================
! <#Parent Node Connections>,<Number of Parent Node Connections>
 #Parent Node Connections,137
! <Parent Node Connection>,<Node Name>,<Node ObjectType>,<Node ObjectName>,<Node ConnectionType>,<Node FluidStream>
 Parent Node Connection,NODE 19,BRANCH,SYS_3|MIXED|SHR>ERV|SC>DX|SH>C-G|SSF>CV|ZH>B-HW|ZC>NONE|SRF>NONE| MAIN BRANCH,Inlet,1
 Parent Node Connection,NODE 28,BRANCH,SYS_3|MIXED|SHR>ERV|SC>DX|SH>C-G|SSF>CV|ZH>B-HW|ZC>NONE|SRF>NONE| MAIN BRANCH,Internal,1
 Parent Node Connection,NODE 27,BRANCH,SYS_3|MIXED|SHR>ERV|SC>DX|SH>C-G|SSF>CV|ZH>B-HW|ZC>NONE|SRF>NONE| MAIN BRANCH,Internal,1
 Parent Node Connection,NODE 26,BRANCH,SYS_3|MIXED|SHR>ERV|SC>DX|SH>C-G|SSF>CV|ZH>B-HW|ZC>NONE|SRF>NONE| MAIN BRANCH,Internal,1
 Parent Node Connection,NODE 20,BRANCH,SYS_3|MIXED|SHR>ERV|SC>DX|SH>C-G|SSF>CV|ZH>B-HW|ZC>NONE|SRF>NONE| MAIN BRANCH,Outlet,1
 Parent Node Connection,NODE 32,BRANCH,SYS_3|MIXED|SHR>ERV|SC>DX|SH>C-G|SSF>CV|ZH>B-HW|ZC>NONE|SRF>NONE| 1 MAIN BRANCH,Inlet,1
 Parent Node Connection,NODE 41,BRANCH,SYS_3|MIXED|SHR>ERV|SC>DX|SH>C-G|SSF>CV|ZH>B-HW|ZC>NONE|SRF>NONE| 1 MAIN BRANCH,Internal,1
 Parent Node Connection,NODE 40,BRANCH,SYS_3|MIXED|SHR>ERV|SC>DX|SH>C-G|SSF>CV|ZH>B-HW|ZC>NONE|SRF>NONE| 1 MAIN BRANCH,Internal,1
 Parent Node Connection,NODE 39,BRANCH,SYS_3|MIXED|SHR>ERV|SC>DX|SH>C-G|SSF>CV|ZH>B-HW|ZC>NONE|SRF>NONE| 1 MAIN BRANCH,Internal,1
 Parent Node Connection,NODE 33,BRANCH,SYS_3|MIXED|SHR>ERV|SC>DX|SH>C-G|SSF>CV|ZH>B-HW|ZC>NONE|SRF>NONE| 1 MAIN BRANCH,Outlet,1
 Parent Node Connection,NODE 46,BRANCH,SYS_3|MIXED|SHR>ERV|SC>DX|SH>C-G|SSF>CV|ZH>B-HW|ZC>NONE|SRF>NONE| 2 MAIN BRANCH,Inlet,1
 Parent Node Connection,NODE 55,BRANCH,SYS_3|MIXED|SHR>ERV|SC>DX|SH>C-G|SSF>CV|ZH>B-HW|ZC>NONE|SRF>NONE| 2 MAIN BRANCH,Internal,1
 Parent Node Connection,NODE 54,BRANCH,SYS_3|MIXED|SHR>ERV|SC>DX|SH>C-G|SSF>CV|ZH>B-HW|ZC>NONE|SRF>NONE| 2 MAIN BRANCH,Internal,1
 Parent Node Connection,NODE 53,BRANCH,SYS_3|MIXED|SHR>ERV|SC>DX|SH>C-G|SSF>CV|ZH>B-HW|ZC>NONE|SRF>NONE| 2 MAIN BRANCH,Internal,1
 Parent Node Connection,NODE 47,BRANCH,SYS_3|MIXED|SHR>ERV|SC>DX|SH>C-G|SSF>CV|ZH>B-HW|ZC>NONE|SRF>NONE| 2 MAIN BRANCH,Outlet,1
 Parent Node Connection,NODE 60,BRANCH,SYS_3|MIXED|SHR>ERV|SC>DX|SH>C-G|SSF>CV|ZH>B-HW|ZC>NONE|SRF>NONE| 3 MAIN BRANCH,Inlet,1
 Parent Node Connection,NODE 69,BRANCH,SYS_3|MIXED|SHR>ERV|SC>DX|SH>C-G|SSF>CV|ZH>B-HW|ZC>NONE|SRF>NONE| 3 MAIN BRANCH,Internal,1
 Parent Node Connection,NODE 68,BRANCH,SYS_3|MIXED|SHR>ERV|SC>DX|SH>C-G|SSF>CV|ZH>B-HW|ZC>NONE|SRF>NONE| 3 MAIN BRANCH,Internal,1
 Parent Node Connection,NODE 67,BRANCH,SYS_3|MIXED|SHR>ERV|SC>DX|SH>C-G|SSF>CV|ZH>B-HW|ZC>NONE|SRF>NONE| 3 MAIN BRANCH,Internal,1
 Parent Node Connection,NODE 61,BRANCH,SYS_3|MIXED|SHR>ERV|SC>DX|SH>C-G|SSF>CV|ZH>B-HW|ZC>NONE|SRF>NONE| 3 MAIN BRANCH,Outlet,1
 Parent Node Connection,NODE 74,BRANCH,SYS_3|MIXED|SHR>ERV|SC>DX|SH>C-G|SSF>CV|ZH>B-HW|ZC>NONE|SRF>NONE| 4 MAIN BRANCH,Inlet,1
 Parent Node Connection,NODE 83,BRANCH,SYS_3|MIXED|SHR>ERV|SC>DX|SH>C-G|SSF>CV|ZH>B-HW|ZC>NONE|SRF>NONE| 4 MAIN BRANCH,Internal,1
 Parent Node Connection,NODE 82,BRANCH,SYS_3|MIXED|SHR>ERV|SC>DX|SH>C-G|SSF>CV|ZH>B-HW|ZC>NONE|SRF>NONE| 4 MAIN BRANCH,Internal,1
 Parent Node Connection,NODE 81,BRANCH,SYS_3|MIXED|SHR>ERV|SC>DX|SH>C-G|SSF>CV|ZH>B-HW|ZC>NONE|SRF>NONE| 4 MAIN BRANCH,Internal,1
 Parent Node Connection,NODE 75,BRANCH,SYS_3|MIXED|SHR>ERV|SC>DX|SH>C-G|SSF>CV|ZH>B-HW|ZC>NONE|SRF>NONE| 4 MAIN BRANCH,Outlet,1
 Parent Node Connection,NODE 2,BRANCH,HOT WATER LOOP SUPPLY INLET BRANCH,Inlet,1
 Parent Node Connection,NODE 11,BRANCH,HOT WATER LOOP SUPPLY INLET BRANCH,Outlet,1
 Parent Node Connection,NODE 5,BRANCH,HOT WATER LOOP SUPPLY BRANCH 1,Inlet,1
 Parent Node Connection,NODE 12,BRANCH,HOT WATER LOOP SUPPLY BRANCH 1,Outlet,1
 Parent Node Connection,NODE 14,BRANCH,HOT WATER LOOP SUPPLY BRANCH 2,Inlet,1
 Parent Node Connection,NODE 15,BRANCH,HOT WATER LOOP SUPPLY BRANCH 2,Outlet,1
 Parent Node Connection,NODE 16,BRANCH,HOT WATER LOOP SUPPLY BRANCH 3,Inlet,1
 Parent Node Connection,NODE 17,BRANCH,HOT WATER LOOP SUPPLY BRANCH 3,Outlet,1
 Parent Node Connection,NODE 18,BRANCH,HOT WATER LOOP SUPPLY OUTLET BRANCH,Inlet,1
 Parent Node Connection,NODE 3,BRANCH,HOT WATER LOOP SUPPLY OUTLET BRANCH,Outlet,1
 Parent Node Connection,NODE 6,BRANCH,HOT WATER LOOP DEMAND INLET BRANCH,Inlet,1
 Parent Node Connection,HOT WATER LOOP DEMAND INLET PIPE NODE,BRANCH,HOT WATER LOOP DEMAND INLET BRANCH,Outlet,1
 Parent Node Connection,NODE 9,BRANCH,HOT WATER LOOP DEMAND BRANCH 1,Inlet,1
 Parent Node Connection,NODE 31,BRANCH,HOT WATER LOOP DEMAND BRANCH 1,Outlet,1
 Parent Node Connection,NODE 44,BRANCH,HOT WATER LOOP DEMAND BRANCH 2,Inlet,1
 Parent Node Connection,NODE 45,BRANCH,HOT WATER LOOP DEMAND BRANCH 2,Outlet,1
 Parent Node Connection,NODE 58,BRANCH,HOT WATER LOOP DEMAND BRANCH 3,Inlet,1
 Parent Node Connection,NODE 59,BRANCH,HOT WATER LOOP DEMAND BRANCH 3,Outlet,1
 Parent Node Connection,NODE 72,BRANCH,HOT WATER LOOP DEMAND BRANCH 4,Inlet,1
 Parent Node Connection,NODE 73,BRANCH,HOT WATER LOOP DEMAND BRANCH 4,Outlet,1
 Parent Node Connection,NODE 86,BRANCH,HOT WATER LOOP DEMAND BRANCH 5,Inlet,1
 Parent Node Connection,NODE 87,BRANCH,HOT WATER LOOP DEMAND BRANCH 5,Outlet,1
 Parent Node Connection,HOT WATER LOOP DEMAND BYPASS PIPE INLET NODE,BRANCH,HOT WATER LOOP DEMAND BYPASS BRANCH,Inlet,1
 Parent Node Connection,HOT WATER LOOP DEMAND BYPASS PIPE OUTLET NODE,BRANCH,HOT WATER LOOP DEMAND BYPASS BRANCH,Outlet,1
 Parent Node Connection,HOT WATER LOOP DEMAND OUTLET PIPE NODE,BRANCH,HOT WATER LOOP DEMAND OUTLET BRANCH,Inlet,1
 Parent Node Connection,NODE 8,BRANCH,HOT WATER LOOP DEMAND OUTLET BRANCH,Outlet,1
 Parent Node Connection,NODE 88,BRANCH,MAIN SERVICE WATER LOOP SUPPLY INLET BRANCH,Inlet,1
 Parent Node Connection,NODE 94,BRANCH,MAIN SERVICE WATER LOOP SUPPLY INLET BRANCH,Outlet,1
 Parent Node Connection,NODE 90,BRANCH,MAIN SERVICE WATER LOOP SUPPLY BRANCH 1,Inlet,1
 Parent Node Connection,NODE 95,BRANCH,MAIN SERVICE WATER LOOP SUPPLY BRANCH 1,Outlet,1
 Parent Node Connection,NODE 96,BRANCH,MAIN SERVICE WATER LOOP SUPPLY BRANCH 2,Inlet,1
 Parent Node Connection,NODE 97,BRANCH,MAIN SERVICE WATER LOOP SUPPLY BRANCH 2,Outlet,1
 Parent Node Connection,NODE 99,BRANCH,MAIN SERVICE WATER LOOP SUPPLY OUTLET BRANCH,Inlet,1
 Parent Node Connection,NODE 89,BRANCH,MAIN SERVICE WATER LOOP SUPPLY OUTLET BRANCH,Outlet,1
 Parent Node Connection,NODE 91,BRANCH,MAIN SERVICE WATER LOOP DEMAND INLET BRANCH,Inlet,1
 Parent Node Connection,MAIN SERVICE WATER LOOP DEMAND INLET PIPE NODE,BRANCH,MAIN SERVICE WATER LOOP DEMAND INLET BRANCH,Outlet,1
 Parent Node Connection,NODE 93,BRANCH,MAIN SERVICE WATER LOOP DEMAND BRANCH 1,Inlet,1
 Parent Node Connection,NODE 98,BRANCH,MAIN SERVICE WATER LOOP DEMAND BRANCH 1,Outlet,1
 Parent Node Connection,NODE 101,BRANCH,MAIN SERVICE WATER LOOP DEMAND BRANCH 2,Inlet,1
 Parent Node Connection,NODE 102,BRANCH,MAIN SERVICE WATER LOOP DEMAND BRANCH 2,Outlet,1
 Parent Node Connection,NODE 103,BRANCH,MAIN SERVICE WATER LOOP DEMAND BRANCH 3,Inlet,1
 Parent Node Connection,NODE 104,BRANCH,MAIN SERVICE WATER LOOP DEMAND BRANCH 3,Outlet,1
 Parent Node Connection,NODE 105,BRANCH,MAIN SERVICE WATER LOOP DEMAND BRANCH 4,Inlet,1
 Parent Node Connection,NODE 106,BRANCH,MAIN SERVICE WATER LOOP DEMAND BRANCH 4,Outlet,1
 Parent Node Connection,NODE 107,BRANCH,MAIN SERVICE WATER LOOP DEMAND BRANCH 5,Inlet,1
 Parent Node Connection,NODE 108,BRANCH,MAIN SERVICE WATER LOOP DEMAND BRANCH 5,Outlet,1
 Parent Node Connection,NODE 109,BRANCH,MAIN SERVICE WATER LOOP DEMAND BRANCH 6,Inlet,1
 Parent Node Connection,NODE 110,BRANCH,MAIN SERVICE WATER LOOP DEMAND BRANCH 6,Outlet,1
 Parent Node Connection,MAIN SERVICE WATER LOOP DEMAND BYPASS PIPE INLET NODE,BRANCH,MAIN SERVICE WATER LOOP DEMAND BYPASS BRANCH,Inlet,1
 Parent Node Connection,MAIN SERVICE WATER LOOP DEMAND BYPASS PIPE OUTLET NODE,BRANCH,MAIN SERVICE WATER LOOP DEMAND BYPASS BRANCH,Outlet,1
 Parent Node Connection,NODE 100,BRANCH,MAIN SERVICE WATER LOOP DEMAND OUTLET BRANCH,Inlet,1
 Parent Node Connection,NODE 92,BRANCH,MAIN SERVICE WATER LOOP DEMAND OUTLET BRANCH,Outlet,1
 Parent Node Connection,NODE 21,AIRLOOPHVAC:SUPPLYPATH,SYS_3|MIXED|SHR>ERV|SC>DX|SH>C-G|SSF>CV|ZH>B-HW|ZC>NONE|SRF>NONE| NODE 21 SUPPLY PATH,Inlet,1
 Parent Node Connection,NODE 34,AIRLOOPHVAC:SUPPLYPATH,SYS_3|MIXED|SHR>ERV|SC>DX|SH>C-G|SSF>CV|ZH>B-HW|ZC>NONE|SRF>NONE| 1 NODE 34 SUPPLY PATH,Inlet,1
 Parent Node Connection,NODE 48,AIRLOOPHVAC:SUPPLYPATH,SYS_3|MIXED|SHR>ERV|SC>DX|SH>C-G|SSF>CV|ZH>B-HW|ZC>NONE|SRF>NONE| 2 NODE 48 SUPPLY PATH,Inlet,1
 Parent Node Connection,NODE 62,AIRLOOPHVAC:SUPPLYPATH,SYS_3|MIXED|SHR>ERV|SC>DX|SH>C-G|SSF>CV|ZH>B-HW|ZC>NONE|SRF>NONE| 3 NODE 62 SUPPLY PATH,Inlet,1
 Parent Node Connection,NODE 76,AIRLOOPHVAC:SUPPLYPATH,SYS_3|MIXED|SHR>ERV|SC>DX|SH>C-G|SSF>CV|ZH>B-HW|ZC>NONE|SRF>NONE| 4 NODE 76 SUPPLY PATH,Inlet,1
 Parent Node Connection,NODE 22,AIRLOOPHVAC:RETURNPATH,SYS_3|MIXED|SHR>ERV|SC>DX|SH>C-G|SSF>CV|ZH>B-HW|ZC>NONE|SRF>NONE| RETURN PATH,Outlet,1
 Parent Node Connection,NODE 35,AIRLOOPHVAC:RETURNPATH,SYS_3|MIXED|SHR>ERV|SC>DX|SH>C-G|SSF>CV|ZH>B-HW|ZC>NONE|SRF>NONE| 1 RETURN PATH,Outlet,1
 Parent Node Connection,NODE 49,AIRLOOPHVAC:RETURNPATH,SYS_3|MIXED|SHR>ERV|SC>DX|SH>C-G|SSF>CV|ZH>B-HW|ZC>NONE|SRF>NONE| 2 RETURN PATH,Outlet,1
 Parent Node Connection,NODE 63,AIRLOOPHVAC:RETURNPATH,SYS_3|MIXED|SHR>ERV|SC>DX|SH>C-G|SSF>CV|ZH>B-HW|ZC>NONE|SRF>NONE| 3 RETURN PATH,Outlet,1
 Parent Node Connection,NODE 77,AIRLOOPHVAC:RETURNPATH,SYS_3|MIXED|SHR>ERV|SC>DX|SH>C-G|SSF>CV|ZH>B-HW|ZC>NONE|SRF>NONE| 4 RETURN PATH,Outlet,1
 Parent Node Connection,NODE 2,PLANTLOOP,HOT WATER LOOP,Inlet,1
 Parent Node Connection,NODE 3,PLANTLOOP,HOT WATER LOOP,Outlet,1
 Parent Node Connection,NODE 6,PLANTLOOP,HOT WATER LOOP,Inlet,1
 Parent Node Connection,NODE 8,PLANTLOOP,HOT WATER LOOP,Outlet,1
 Parent Node Connection,NODE 3,PLANTLOOP,HOT WATER LOOP,Sensor,1
 Parent Node Connection,NODE 88,PLANTLOOP,MAIN SERVICE WATER LOOP,Inlet,1
 Parent Node Connection,NODE 89,PLANTLOOP,MAIN SERVICE WATER LOOP,Outlet,1
 Parent Node Connection,NODE 91,PLANTLOOP,MAIN SERVICE WATER LOOP,Inlet,1
 Parent Node Connection,NODE 92,PLANTLOOP,MAIN SERVICE WATER LOOP,Outlet,1
 Parent Node Connection,NODE 89,PLANTLOOP,MAIN SERVICE WATER LOOP,Sensor,1
 Parent Node Connection,NODE 23,ZONEHVAC:AIRDISTRIBUTIONUNIT,ADU AIR TERMINAL SINGLE DUCT CONSTANT VOLUME NO REHEAT 1,Outlet,1
 Parent Node Connection,NODE 36,ZONEHVAC:AIRDISTRIBUTIONUNIT,ADU AIR TERMINAL SINGLE DUCT CONSTANT VOLUME NO REHEAT 2,Outlet,1
 Parent Node Connection,NODE 50,ZONEHVAC:AIRDISTRIBUTIONUNIT,ADU AIR TERMINAL SINGLE DUCT CONSTANT VOLUME NO REHEAT 3,Outlet,1
 Parent Node Connection,NODE 64,ZONEHVAC:AIRDISTRIBUTIONUNIT,ADU AIR TERMINAL SINGLE DUCT CONSTANT VOLUME NO REHEAT 4,Outlet,1
 Parent Node Connection,NODE 78,ZONEHVAC:AIRDISTRIBUTIONUNIT,ADU AIR TERMINAL SINGLE DUCT CONSTANT VOLUME NO REHEAT 5,Outlet,1
 Parent Node Connection,NODE 19,AIRLOOPHVAC,SYS_3|MIXED|SHR>ERV|SC>DX|SH>C-G|SSF>CV|ZH>B-HW|ZC>NONE|SRF>NONE|,Inlet,1
 Parent Node Connection,NODE 22,AIRLOOPHVAC,SYS_3|MIXED|SHR>ERV|SC>DX|SH>C-G|SSF>CV|ZH>B-HW|ZC>NONE|SRF>NONE|,Outlet,1
 Parent Node Connection,NODE 21,AIRLOOPHVAC,SYS_3|MIXED|SHR>ERV|SC>DX|SH>C-G|SSF>CV|ZH>B-HW|ZC>NONE|SRF>NONE|,Inlet,1
 Parent Node Connection,NODE 20,AIRLOOPHVAC,SYS_3|MIXED|SHR>ERV|SC>DX|SH>C-G|SSF>CV|ZH>B-HW|ZC>NONE|SRF>NONE|,Outlet,1
 Parent Node Connection,NODE 32,AIRLOOPHVAC,SYS_3|MIXED|SHR>ERV|SC>DX|SH>C-G|SSF>CV|ZH>B-HW|ZC>NONE|SRF>NONE| 1,Inlet,1
 Parent Node Connection,NODE 35,AIRLOOPHVAC,SYS_3|MIXED|SHR>ERV|SC>DX|SH>C-G|SSF>CV|ZH>B-HW|ZC>NONE|SRF>NONE| 1,Outlet,1
 Parent Node Connection,NODE 34,AIRLOOPHVAC,SYS_3|MIXED|SHR>ERV|SC>DX|SH>C-G|SSF>CV|ZH>B-HW|ZC>NONE|SRF>NONE| 1,Inlet,1
 Parent Node Connection,NODE 33,AIRLOOPHVAC,SYS_3|MIXED|SHR>ERV|SC>DX|SH>C-G|SSF>CV|ZH>B-HW|ZC>NONE|SRF>NONE| 1,Outlet,1
 Parent Node Connection,NODE 46,AIRLOOPHVAC,SYS_3|MIXED|SHR>ERV|SC>DX|SH>C-G|SSF>CV|ZH>B-HW|ZC>NONE|SRF>NONE| 2,Inlet,1
 Parent Node Connection,NODE 49,AIRLOOPHVAC,SYS_3|MIXED|SHR>ERV|SC>DX|SH>C-G|SSF>CV|ZH>B-HW|ZC>NONE|SRF>NONE| 2,Outlet,1
 Parent Node Connection,NODE 48,AIRLOOPHVAC,SYS_3|MIXED|SHR>ERV|SC>DX|SH>C-G|SSF>CV|ZH>B-HW|ZC>NONE|SRF>NONE| 2,Inlet,1
 Parent Node Connection,NODE 47,AIRLOOPHVAC,SYS_3|MIXED|SHR>ERV|SC>DX|SH>C-G|SSF>CV|ZH>B-HW|ZC>NONE|SRF>NONE| 2,Outlet,1
 Parent Node Connection,NODE 60,AIRLOOPHVAC,SYS_3|MIXED|SHR>ERV|SC>DX|SH>C-G|SSF>CV|ZH>B-HW|ZC>NONE|SRF>NONE| 3,Inlet,1
 Parent Node Connection,NODE 63,AIRLOOPHVAC,SYS_3|MIXED|SHR>ERV|SC>DX|SH>C-G|SSF>CV|ZH>B-HW|ZC>NONE|SRF>NONE| 3,Outlet,1
 Parent Node Connection,NODE 62,AIRLOOPHVAC,SYS_3|MIXED|SHR>ERV|SC>DX|SH>C-G|SSF>CV|ZH>B-HW|ZC>NONE|SRF>NONE| 3,Inlet,1
 Parent Node Connection,NODE 61,AIRLOOPHVAC,SYS_3|MIXED|SHR>ERV|SC>DX|SH>C-G|SSF>CV|ZH>B-HW|ZC>NONE|SRF>NONE| 3,Outlet,1
 Parent Node Connection,NODE 74,AIRLOOPHVAC,SYS_3|MIXED|SHR>ERV|SC>DX|SH>C-G|SSF>CV|ZH>B-HW|ZC>NONE|SRF>NONE| 4,Inlet,1
 Parent Node Connection,NODE 77,AIRLOOPHVAC,SYS_3|MIXED|SHR>ERV|SC>DX|SH>C-G|SSF>CV|ZH>B-HW|ZC>NONE|SRF>NONE| 4,Outlet,1
 Parent Node Connection,NODE 76,AIRLOOPHVAC,SYS_3|MIXED|SHR>ERV|SC>DX|SH>C-G|SSF>CV|ZH>B-HW|ZC>NONE|SRF>NONE| 4,Inlet,1
 Parent Node Connection,NODE 75,AIRLOOPHVAC,SYS_3|MIXED|SHR>ERV|SC>DX|SH>C-G|SSF>CV|ZH>B-HW|ZC>NONE|SRF>NONE| 4,Outlet,1
 Parent Node Connection,NODE 28,COILSYSTEM:COOLING:DX,COILCOOLINGDXSINGLESPEED_DX 29KBTU/HR 15.0SEER COILSYSTEM,Inlet,1
 Parent Node Connection,NODE 27,COILSYSTEM:COOLING:DX,COILCOOLINGDXSINGLESPEED_DX 29KBTU/HR 15.0SEER COILSYSTEM,Outlet,1
 Parent Node Connection,NODE 27,COILSYSTEM:COOLING:DX,COILCOOLINGDXSINGLESPEED_DX 29KBTU/HR 15.0SEER COILSYSTEM,Sensor,1
 Parent Node Connection,NODE 41,COILSYSTEM:COOLING:DX,COILCOOLINGDXSINGLESPEED_DX 1 23KBTU/HR 15.0SEER COILSYSTEM,Inlet,1
 Parent Node Connection,NODE 40,COILSYSTEM:COOLING:DX,COILCOOLINGDXSINGLESPEED_DX 1 23KBTU/HR 15.0SEER COILSYSTEM,Outlet,1
 Parent Node Connection,NODE 40,COILSYSTEM:COOLING:DX,COILCOOLINGDXSINGLESPEED_DX 1 23KBTU/HR 15.0SEER COILSYSTEM,Sensor,1
 Parent Node Connection,NODE 55,COILSYSTEM:COOLING:DX,COILCOOLINGDXSINGLESPEED_DX 2 15KBTU/HR 15.0SEER COILSYSTEM,Inlet,1
 Parent Node Connection,NODE 54,COILSYSTEM:COOLING:DX,COILCOOLINGDXSINGLESPEED_DX 2 15KBTU/HR 15.0SEER COILSYSTEM,Outlet,1
 Parent Node Connection,NODE 54,COILSYSTEM:COOLING:DX,COILCOOLINGDXSINGLESPEED_DX 2 15KBTU/HR 15.0SEER COILSYSTEM,Sensor,1
 Parent Node Connection,NODE 69,COILSYSTEM:COOLING:DX,COILCOOLINGDXSINGLESPEED_DX 3 21KBTU/HR 15.0SEER COILSYSTEM,Inlet,1
 Parent Node Connection,NODE 68,COILSYSTEM:COOLING:DX,COILCOOLINGDXSINGLESPEED_DX 3 21KBTU/HR 15.0SEER COILSYSTEM,Outlet,1
 Parent Node Connection,NODE 68,COILSYSTEM:COOLING:DX,COILCOOLINGDXSINGLESPEED_DX 3 21KBTU/HR 15.0SEER COILSYSTEM,Sensor,1
 Parent Node Connection,NODE 83,COILSYSTEM:COOLING:DX,COILCOOLINGDXSINGLESPEED_DX 4 41KBTU/HR 15.0SEER COILSYSTEM,Inlet,1
 Parent Node Connection,NODE 82,COILSYSTEM:COOLING:DX,COILCOOLINGDXSINGLESPEED_DX 4 41KBTU/HR 15.0SEER COILSYSTEM,Outlet,1
 Parent Node Connection,NODE 82,COILSYSTEM:COOLING:DX,COILCOOLINGDXSINGLESPEED_DX 4 41KBTU/HR 15.0SEER COILSYSTEM,Sensor,1
! ===============================================================
! <#Non-Parent Node Connections>,<Number of Non-Parent Node Connections>
 #Non-Parent Node Connections,324
! <Non-Parent Node Connection>,<Node Name>,<Node ObjectType>,<Node ObjectName>,<Node ConnectionType>,<Node FluidStream>
 Non-Parent Node Connection,NODE 1,ZONEHVAC:EQUIPMENTCONNECTIONS,ALL_ST=WHOLEBUILDING_FL=STORY 1_SCH=A,ZoneNode,1
 Non-Parent Node Connection,NODE 23,ZONEHVAC:EQUIPMENTCONNECTIONS,ALL_ST=WHOLEBUILDING_FL=STORY 1_SCH=A,ZoneInlet,1
 Non-Parent Node Connection,NODE 29,ZONEHVAC:EQUIPMENTCONNECTIONS,ALL_ST=WHOLEBUILDING_FL=STORY 1_SCH=A,ZoneReturn,1
 Non-Parent Node Connection,NODE 4,ZONEHVAC:EQUIPMENTCONNECTIONS,ALL_ST=WHOLEBUILDING_FL=STORY 1_SCH=A 5,ZoneNode,1
 Non-Parent Node Connection,NODE 36,ZONEHVAC:EQUIPMENTCONNECTIONS,ALL_ST=WHOLEBUILDING_FL=STORY 1_SCH=A 5,ZoneInlet,1
 Non-Parent Node Connection,NODE 42,ZONEHVAC:EQUIPMENTCONNECTIONS,ALL_ST=WHOLEBUILDING_FL=STORY 1_SCH=A 5,ZoneReturn,1
 Non-Parent Node Connection,NODE 7,ZONEHVAC:EQUIPMENTCONNECTIONS,ALL_ST=WHOLEBUILDING_FL=STORY 1_SCH=A 6,ZoneNode,1
 Non-Parent Node Connection,NODE 50,ZONEHVAC:EQUIPMENTCONNECTIONS,ALL_ST=WHOLEBUILDING_FL=STORY 1_SCH=A 6,ZoneInlet,1
 Non-Parent Node Connection,NODE 56,ZONEHVAC:EQUIPMENTCONNECTIONS,ALL_ST=WHOLEBUILDING_FL=STORY 1_SCH=A 6,ZoneReturn,1
 Non-Parent Node Connection,NODE 10,ZONEHVAC:EQUIPMENTCONNECTIONS,ALL_ST=WHOLEBUILDING_FL=STORY 1_SCH=A 7,ZoneNode,1
 Non-Parent Node Connection,NODE 64,ZONEHVAC:EQUIPMENTCONNECTIONS,ALL_ST=WHOLEBUILDING_FL=STORY 1_SCH=A 7,ZoneInlet,1
 Non-Parent Node Connection,NODE 70,ZONEHVAC:EQUIPMENTCONNECTIONS,ALL_ST=WHOLEBUILDING_FL=STORY 1_SCH=A 7,ZoneReturn,1
 Non-Parent Node Connection,NODE 13,ZONEHVAC:EQUIPMENTCONNECTIONS,ALL_ST=WHOLEBUILDING_FL=STORY 1_SCH=A 8,ZoneNode,1
 Non-Parent Node Connection,NODE 78,ZONEHVAC:EQUIPMENTCONNECTIONS,ALL_ST=WHOLEBUILDING_FL=STORY 1_SCH=A 8,ZoneInlet,1
 Non-Parent Node Connection,NODE 84,ZONEHVAC:EQUIPMENTCONNECTIONS,ALL_ST=WHOLEBUILDING_FL=STORY 1_SCH=A 8,ZoneReturn,1
 Non-Parent Node Connection,NODE 90,WATERHEATER:MIXED,6GAL NATURALGAS WATER HEATER - 4KBTU/HR 0.82 THERM EFF,Inlet,1
 Non-Parent Node Connection,NODE 95,WATERHEATER:MIXED,6GAL NATURALGAS WATER HEATER - 4KBTU/HR 0.82 THERM EFF,Outlet,1
 Non-Parent Node Connection,NODE 24,OUTDOORAIR:NODELIST,OutdoorAir:NodeList,OutdoorAir,1
 Non-Parent Node Connection,NODE 37,OUTDOORAIR:NODELIST,OutdoorAir:NodeList,OutdoorAir,2
 Non-Parent Node Connection,NODE 51,OUTDOORAIR:NODELIST,OutdoorAir:NodeList,OutdoorAir,3
 Non-Parent Node Connection,NODE 65,OUTDOORAIR:NODELIST,OutdoorAir:NodeList,OutdoorAir,4
 Non-Parent Node Connection,NODE 79,OUTDOORAIR:NODELIST,OutdoorAir:NodeList,OutdoorAir,5
 Non-Parent Node Connection,MODEL OUTDOOR AIR NODE,OUTDOORAIR:NODE,OutdoorAir:Node,OutdoorAir,6
 Non-Parent Node Connection,NODE 89,SETPOINTMANAGER:SCHEDULED,SERVICE HOT WATER SETPOINT MANAGER,Setpoint,1
 Non-Parent Node Connection,NODE 3,SETPOINTMANAGER:OUTDOORAIRRESET,SETPOINT MANAGER OUTDOOR AIR RESET 1,Setpoint,1
 Non-Parent Node Connection,NODE 1,SETPOINTMANAGER:SINGLEZONE:REHEAT,SETPOINT MANAGER SINGLE ZONE REHEAT 1,Sensor,1
 Non-Parent Node Connection,NODE 23,SETPOINTMANAGER:SINGLEZONE:REHEAT,SETPOINT MANAGER SINGLE ZONE REHEAT 1,Sensor,1
 Non-Parent Node Connection,NODE 20,SETPOINTMANAGER:SINGLEZONE:REHEAT,SETPOINT MANAGER SINGLE ZONE REHEAT 1,Setpoint,1
 Non-Parent Node Connection,NODE 4,SETPOINTMANAGER:SINGLEZONE:REHEAT,SETPOINT MANAGER SINGLE ZONE REHEAT 2,Sensor,1
 Non-Parent Node Connection,NODE 36,SETPOINTMANAGER:SINGLEZONE:REHEAT,SETPOINT MANAGER SINGLE ZONE REHEAT 2,Sensor,1
 Non-Parent Node Connection,NODE 33,SETPOINTMANAGER:SINGLEZONE:REHEAT,SETPOINT MANAGER SINGLE ZONE REHEAT 2,Setpoint,1
 Non-Parent Node Connection,NODE 7,SETPOINTMANAGER:SINGLEZONE:REHEAT,SETPOINT MANAGER SINGLE ZONE REHEAT 3,Sensor,1
 Non-Parent Node Connection,NODE 50,SETPOINTMANAGER:SINGLEZONE:REHEAT,SETPOINT MANAGER SINGLE ZONE REHEAT 3,Sensor,1
 Non-Parent Node Connection,NODE 47,SETPOINTMANAGER:SINGLEZONE:REHEAT,SETPOINT MANAGER SINGLE ZONE REHEAT 3,Setpoint,1
 Non-Parent Node Connection,NODE 10,SETPOINTMANAGER:SINGLEZONE:REHEAT,SETPOINT MANAGER SINGLE ZONE REHEAT 4,Sensor,1
 Non-Parent Node Connection,NODE 64,SETPOINTMANAGER:SINGLEZONE:REHEAT,SETPOINT MANAGER SINGLE ZONE REHEAT 4,Sensor,1
 Non-Parent Node Connection,NODE 61,SETPOINTMANAGER:SINGLEZONE:REHEAT,SETPOINT MANAGER SINGLE ZONE REHEAT 4,Setpoint,1
 Non-Parent Node Connection,NODE 13,SETPOINTMANAGER:SINGLEZONE:REHEAT,SETPOINT MANAGER SINGLE ZONE REHEAT 5,Sensor,1
 Non-Parent Node Connection,NODE 78,SETPOINTMANAGER:SINGLEZONE:REHEAT,SETPOINT MANAGER SINGLE ZONE REHEAT 5,Sensor,1
 Non-Parent Node Connection,NODE 75,SETPOINTMANAGER:SINGLEZONE:REHEAT,SETPOINT MANAGER SINGLE ZONE REHEAT 5,Setpoint,1
 Non-Parent Node Connection,NODE 20,SETPOINTMANAGER:MIXEDAIR,NODE 28 OS DEFAULT SPM,Sensor,1
 Non-Parent Node Connection,NODE 26,SETPOINTMANAGER:MIXEDAIR,NODE 28 OS DEFAULT SPM,Sensor,1
 Non-Parent Node Connection,NODE 28,SETPOINTMANAGER:MIXEDAIR,NODE 28 OS DEFAULT SPM,Setpoint,1
 Non-Parent Node Connection,NODE 20,SETPOINTMANAGER:MIXEDAIR,NODE 27 OS DEFAULT SPM,Sensor,1
 Non-Parent Node Connection,NODE 26,SETPOINTMANAGER:MIXEDAIR,NODE 27 OS DEFAULT SPM,Sensor,1
 Non-Parent Node Connection,NODE 27,SETPOINTMANAGER:MIXEDAIR,NODE 27 OS DEFAULT SPM,Setpoint,1
 Non-Parent Node Connection,NODE 20,SETPOINTMANAGER:MIXEDAIR,NODE 26 OS DEFAULT SPM,Sensor,1
 Non-Parent Node Connection,NODE 26,SETPOINTMANAGER:MIXEDAIR,NODE 26 OS DEFAULT SPM,Sensor,1
 Non-Parent Node Connection,NODE 26,SETPOINTMANAGER:MIXEDAIR,NODE 26 OS DEFAULT SPM,Setpoint,1
 Non-Parent Node Connection,NODE 33,SETPOINTMANAGER:MIXEDAIR,NODE 41 OS DEFAULT SPM,Sensor,1
 Non-Parent Node Connection,NODE 39,SETPOINTMANAGER:MIXEDAIR,NODE 41 OS DEFAULT SPM,Sensor,1
 Non-Parent Node Connection,NODE 41,SETPOINTMANAGER:MIXEDAIR,NODE 41 OS DEFAULT SPM,Setpoint,1
 Non-Parent Node Connection,NODE 33,SETPOINTMANAGER:MIXEDAIR,NODE 40 OS DEFAULT SPM,Sensor,1
 Non-Parent Node Connection,NODE 39,SETPOINTMANAGER:MIXEDAIR,NODE 40 OS DEFAULT SPM,Sensor,1
 Non-Parent Node Connection,NODE 40,SETPOINTMANAGER:MIXEDAIR,NODE 40 OS DEFAULT SPM,Setpoint,1
 Non-Parent Node Connection,NODE 33,SETPOINTMANAGER:MIXEDAIR,NODE 39 OS DEFAULT SPM,Sensor,1
 Non-Parent Node Connection,NODE 39,SETPOINTMANAGER:MIXEDAIR,NODE 39 OS DEFAULT SPM,Sensor,1
 Non-Parent Node Connection,NODE 39,SETPOINTMANAGER:MIXEDAIR,NODE 39 OS DEFAULT SPM,Setpoint,1
 Non-Parent Node Connection,NODE 47,SETPOINTMANAGER:MIXEDAIR,NODE 55 OS DEFAULT SPM,Sensor,1
 Non-Parent Node Connection,NODE 53,SETPOINTMANAGER:MIXEDAIR,NODE 55 OS DEFAULT SPM,Sensor,1
 Non-Parent Node Connection,NODE 55,SETPOINTMANAGER:MIXEDAIR,NODE 55 OS DEFAULT SPM,Setpoint,1
 Non-Parent Node Connection,NODE 47,SETPOINTMANAGER:MIXEDAIR,NODE 54 OS DEFAULT SPM,Sensor,1
 Non-Parent Node Connection,NODE 53,SETPOINTMANAGER:MIXEDAIR,NODE 54 OS DEFAULT SPM,Sensor,1
 Non-Parent Node Connection,NODE 54,SETPOINTMANAGER:MIXEDAIR,NODE 54 OS DEFAULT SPM,Setpoint,1
 Non-Parent Node Connection,NODE 47,SETPOINTMANAGER:MIXEDAIR,NODE 53 OS DEFAULT SPM,Sensor,1
 Non-Parent Node Connection,NODE 53,SETPOINTMANAGER:MIXEDAIR,NODE 53 OS DEFAULT SPM,Sensor,1
 Non-Parent Node Connection,NODE 53,SETPOINTMANAGER:MIXEDAIR,NODE 53 OS DEFAULT SPM,Setpoint,1
 Non-Parent Node Connection,NODE 61,SETPOINTMANAGER:MIXEDAIR,NODE 69 OS DEFAULT SPM,Sensor,1
 Non-Parent Node Connection,NODE 67,SETPOINTMANAGER:MIXEDAIR,NODE 69 OS DEFAULT SPM,Sensor,1
 Non-Parent Node Connection,NODE 69,SETPOINTMANAGER:MIXEDAIR,NODE 69 OS DEFAULT SPM,Setpoint,1
[...]
 Non-Parent Node Connection,NODE 5,BOILER:HOTWATER,PRIMARY BOILER 80KBTU/HR 0.9 AFUE,Inlet,1
 Non-Parent Node Connection,NODE 12,BOILER:HOTWATER,PRIMARY BOILER 80KBTU/HR 0.9 AFUE,Outlet,1
 Non-Parent Node Connection,NODE 14,BOILER:HOTWATER,SECONDARY BOILER 0KBTU/HR 0.9 AFUE,Inlet,1
 Non-Parent Node Connection,NODE 15,BOILER:HOTWATER,SECONDARY BOILER 0KBTU/HR 0.9 AFUE,Outlet,1
 Non-Parent Node Connection,NODE 11,CONNECTOR:SPLITTER,HOT WATER LOOP SUPPLY SPLITTER,Inlet,1
 Non-Parent Node Connection,NODE 5,CONNECTOR:SPLITTER,HOT WATER LOOP SUPPLY SPLITTER,Outlet,1
 Non-Parent Node Connection,NODE 14,CONNECTOR:SPLITTER,HOT WATER LOOP SUPPLY SPLITTER,Outlet,1
 Non-Parent Node Connection,NODE 16,CONNECTOR:SPLITTER,HOT WATER LOOP SUPPLY SPLITTER,Outlet,1
 Non-Parent Node Connection,NODE 18,CONNECTOR:MIXER,HOT WATER LOOP SUPPLY MIXER,Outlet,1
 Non-Parent Node Connection,NODE 12,CONNECTOR:MIXER,HOT WATER LOOP SUPPLY MIXER,Inlet,1
 Non-Parent Node Connection,NODE 15,CONNECTOR:MIXER,HOT WATER LOOP SUPPLY MIXER,Inlet,1
 Non-Parent Node Connection,NODE 17,CONNECTOR:MIXER,HOT WATER LOOP SUPPLY MIXER,Inlet,1
 Non-Parent Node Connection,NODE 101,WATERUSE:CONNECTIONS,WATER USE CONNECTIONS 1,Inlet,1
 Non-Parent Node Connection,NODE 102,WATERUSE:CONNECTIONS,WATER USE CONNECTIONS 1,Outlet,1
 Non-Parent Node Connection,NODE 103,WATERUSE:CONNECTIONS,WATER USE CONNECTIONS 2,Inlet,1
 Non-Parent Node Connection,NODE 104,WATERUSE:CONNECTIONS,WATER USE CONNECTIONS 2,Outlet,1
 Non-Parent Node Connection,NODE 105,WATERUSE:CONNECTIONS,WATER USE CONNECTIONS 3,Inlet,1
 Non-Parent Node Connection,NODE 106,WATERUSE:CONNECTIONS,WATER USE CONNECTIONS 3,Outlet,1
 Non-Parent Node Connection,NODE 107,WATERUSE:CONNECTIONS,WATER USE CONNECTIONS 4,Inlet,1
 Non-Parent Node Connection,NODE 108,WATERUSE:CONNECTIONS,WATER USE CONNECTIONS 4,Outlet,1
 Non-Parent Node Connection,NODE 109,WATERUSE:CONNECTIONS,WATER USE CONNECTIONS 5,Inlet,1
 Non-Parent Node Connection,NODE 110,WATERUSE:CONNECTIONS,WATER USE CONNECTIONS 5,Outlet,1
 Non-Parent Node Connection,MAIN SERVICE WATER LOOP DEMAND INLET PIPE NODE,CONNECTOR:SPLITTER,MAIN SERVICE WATER LOOP DEMAND SPLITTER,Inlet,1
 Non-Parent Node Connection,NODE 93,CONNECTOR:SPLITTER,MAIN SERVICE WATER LOOP DEMAND SPLITTER,Outlet,1
 Non-Parent Node Connection,NODE 101,CONNECTOR:SPLITTER,MAIN SERVICE WATER LOOP DEMAND SPLITTER,Outlet,1
 Non-Parent Node Connection,NODE 103,CONNECTOR:SPLITTER,MAIN SERVICE WATER LOOP DEMAND SPLITTER,Outlet,1
 Non-Parent Node Connection,NODE 105,CONNECTOR:SPLITTER,MAIN SERVICE WATER LOOP DEMAND SPLITTER,Outlet,1
 Non-Parent Node Connection,NODE 107,CONNECTOR:SPLITTER,MAIN SERVICE WATER LOOP DEMAND SPLITTER,Outlet,1
 Non-Parent Node Connection,NODE 109,CONNECTOR:SPLITTER,MAIN SERVICE WATER LOOP DEMAND SPLITTER,Outlet,1
 Non-Parent Node Connection,MAIN SERVICE WATER LOOP DEMAND BYPASS PIPE INLET NODE,CONNECTOR:SPLITTER,MAIN SERVICE WATER LOOP DEMAND SPLITTER,Outlet,1
 Non-Parent Node Connection,NODE 100,CONNECTOR:MIXER,MAIN SERVICE WATER LOOP DEMAND MIXER,Outlet,1
 Non-Parent Node Connection,NODE 98,CONNECTOR:MIXER,MAIN SERVICE WATER LOOP DEMAND MIXER,Inlet,1
 Non-Parent Node Connection,NODE 102,CONNECTOR:MIXER,MAIN SERVICE WATER LOOP DEMAND MIXER,Inlet,1
 Non-Parent Node Connection,NODE 104,CONNECTOR:MIXER,MAIN SERVICE WATER LOOP DEMAND MIXER,Inlet,1
 Non-Parent Node Connection,NODE 106,CONNECTOR:MIXER,MAIN SERVICE WATER LOOP DEMAND MIXER,Inlet,1
 Non-Parent Node Connection,NODE 108,CONNECTOR:MIXER,MAIN SERVICE WATER LOOP DEMAND MIXER,Inlet,1
 Non-Parent Node Connection,NODE 110,CONNECTOR:MIXER,MAIN SERVICE WATER LOOP DEMAND MIXER,Inlet,1
 Non-Parent Node Connection,MAIN SERVICE WATER LOOP DEMAND BYPASS PIPE OUTLET NODE,CONNECTOR:MIXER,MAIN SERVICE WATER LOOP DEMAND MIXER,Inlet,1
 Non-Parent Node Connection,NODE 94,CONNECTOR:SPLITTER,MAIN SERVICE WATER LOOP SUPPLY SPLITTER,Inlet,1
 Non-Parent Node Connection,NODE 90,CONNECTOR:SPLITTER,MAIN SERVICE WATER LOOP SUPPLY SPLITTER,Outlet,1
 Non-Parent Node Connection,NODE 96,CONNECTOR:SPLITTER,MAIN SERVICE WATER LOOP SUPPLY SPLITTER,Outlet,1
 Non-Parent Node Connection,NODE 99,CONNECTOR:MIXER,MAIN SERVICE WATER LOOP SUPPLY MIXER,Outlet,1
 Non-Parent Node Connection,NODE 95,CONNECTOR:MIXER,MAIN SERVICE WATER LOOP SUPPLY MIXER,Inlet,1
 Non-Parent Node Connection,NODE 97,CONNECTOR:MIXER,MAIN SERVICE WATER LOOP SUPPLY MIXER,Inlet,1
 Non-Parent Node Connection,NODE 21,AIRLOOPHVAC:ZONESPLITTER,AIR LOOP HVAC ZONE SPLITTER 1,Inlet,1
 Non-Parent Node Connection,NODE 30,AIRLOOPHVAC:ZONESPLITTER,AIR LOOP HVAC ZONE SPLITTER 1,Outlet,1
 Non-Parent Node Connection,NODE 34,AIRLOOPHVAC:ZONESPLITTER,AIR LOOP HVAC ZONE SPLITTER 2,Inlet,1
 Non-Parent Node Connection,NODE 43,AIRLOOPHVAC:ZONESPLITTER,AIR LOOP HVAC ZONE SPLITTER 2,Outlet,1
 Non-Parent Node Connection,NODE 48,AIRLOOPHVAC:ZONESPLITTER,AIR LOOP HVAC ZONE SPLITTER 3,Inlet,1
 Non-Parent Node Connection,NODE 57,AIRLOOPHVAC:ZONESPLITTER,AIR LOOP HVAC ZONE SPLITTER 3,Outlet,1
 Non-Parent Node Connection,NODE 62,AIRLOOPHVAC:ZONESPLITTER,AIR LOOP HVAC ZONE SPLITTER 4,Inlet,1
 Non-Parent Node Connection,NODE 71,AIRLOOPHVAC:ZONESPLITTER,AIR LOOP HVAC ZONE SPLITTER 4,Outlet,1
 Non-Parent Node Connection,NODE 76,AIRLOOPHVAC:ZONESPLITTER,AIR LOOP HVAC ZONE SPLITTER 5,Inlet,1
 Non-Parent Node Connection,NODE 85,AIRLOOPHVAC:ZONESPLITTER,AIR LOOP HVAC ZONE SPLITTER 5,Outlet,1
 Non-Parent Node Connection,NODE 30,AIRTERMINAL:SINGLEDUCT:CONSTANTVOLUME:NOREHEAT,AIR TERMINAL SINGLE DUCT CONSTANT VOLUME NO REHEAT 1,Inlet,1
 Non-Parent Node Connection,NODE 23,AIRTERMINAL:SINGLEDUCT:CONSTANTVOLUME:NOREHEAT,AIR TERMINAL SINGLE DUCT CONSTANT VOLUME NO REHEAT 1,Outlet,1
 Non-Parent Node Connection,NODE 43,AIRTERMINAL:SINGLEDUCT:CONSTANTVOLUME:NOREHEAT,AIR TERMINAL SINGLE DUCT CONSTANT VOLUME NO REHEAT 2,Inlet,1
 Non-Parent Node Connection,NODE 36,AIRTERMINAL:SINGLEDUCT:CONSTANTVOLUME:NOREHEAT,AIR TERMINAL SINGLE DUCT CONSTANT VOLUME NO REHEAT 2,Outlet,1
 Non-Parent Node Connection,NODE 57,AIRTERMINAL:SINGLEDUCT:CONSTANTVOLUME:NOREHEAT,AIR TERMINAL SINGLE DUCT CONSTANT VOLUME NO REHEAT 3,Inlet,1
 Non-Parent Node Connection,NODE 50,AIRTERMINAL:SINGLEDUCT:CONSTANTVOLUME:NOREHEAT,AIR TERMINAL SINGLE DUCT CONSTANT VOLUME NO REHEAT 3,Outlet,1
 Non-Parent Node Connection,NODE 71,AIRTERMINAL:SINGLEDUCT:CONSTANTVOLUME:NOREHEAT,AIR TERMINAL SINGLE DUCT CONSTANT VOLUME NO REHEAT 4,Inlet,1
 Non-Parent Node Connection,NODE 64,AIRTERMINAL:SINGLEDUCT:CONSTANTVOLUME:NOREHEAT,AIR TERMINAL SINGLE DUCT CONSTANT VOLUME NO REHEAT 4,Outlet,1
 Non-Parent Node Connection,NODE 85,AIRTERMINAL:SINGLEDUCT:CONSTANTVOLUME:NOREHEAT,AIR TERMINAL SINGLE DUCT CONSTANT VOLUME NO REHEAT 5,Inlet,1
 Non-Parent Node Connection,NODE 78,AIRTERMINAL:SINGLEDUCT:CONSTANTVOLUME:NOREHEAT,AIR TERMINAL SINGLE DUCT CONSTANT VOLUME NO REHEAT 5,Outlet,1
 Non-Parent Node Connection,NODE 9,ZONEHVAC:BASEBOARD:CONVECTIVE:WATER,ZONE HVAC BASEBOARD CONVECTIVE WATER 1,Inlet,1
 Non-Parent Node Connection,NODE 31,ZONEHVAC:BASEBOARD:CONVECTIVE:WATER,ZONE HVAC BASEBOARD CONVECTIVE WATER 1,Outlet,1
 Non-Parent Node Connection,NODE 44,ZONEHVAC:BASEBOARD:CONVECTIVE:WATER,ZONE HVAC BASEBOARD CONVECTIVE WATER 2,Inlet,1
 Non-Parent Node Connection,NODE 45,ZONEHVAC:BASEBOARD:CONVECTIVE:WATER,ZONE HVAC BASEBOARD CONVECTIVE WATER 2,Outlet,1
 Non-Parent Node Connection,NODE 58,ZONEHVAC:BASEBOARD:CONVECTIVE:WATER,ZONE HVAC BASEBOARD CONVECTIVE WATER 3,Inlet,1
 Non-Parent Node Connection,NODE 59,ZONEHVAC:BASEBOARD:CONVECTIVE:WATER,ZONE HVAC BASEBOARD CONVECTIVE WATER 3,Outlet,1
 Non-Parent Node Connection,NODE 72,ZONEHVAC:BASEBOARD:CONVECTIVE:WATER,ZONE HVAC BASEBOARD CONVECTIVE WATER 4,Inlet,1
 Non-Parent Node Connection,NODE 73,ZONEHVAC:BASEBOARD:CONVECTIVE:WATER,ZONE HVAC BASEBOARD CONVECTIVE WATER 4,Outlet,1
 Non-Parent Node Connection,NODE 86,ZONEHVAC:BASEBOARD:CONVECTIVE:WATER,ZONE HVAC BASEBOARD CONVECTIVE WATER 5,Inlet,1
 Non-Parent Node Connection,NODE 87,ZONEHVAC:BASEBOARD:CONVECTIVE:WATER,ZONE HVAC BASEBOARD CONVECTIVE WATER 5,Outlet,1
 Non-Parent Node Connection,NODE 22,AIRLOOPHVAC:ZONEMIXER,AIR LOOP HVAC ZONE MIXER 1,Outlet,1
 Non-Parent Node Connection,NODE 29,AIRLOOPHVAC:ZONEMIXER,AIR LOOP HVAC ZONE MIXER 1,Inlet,1
 Non-Parent Node Connection,NODE 35,AIRLOOPHVAC:ZONEMIXER,AIR LOOP HVAC ZONE MIXER 2,Outlet,1
 Non-Parent Node Connection,NODE 42,AIRLOOPHVAC:ZONEMIXER,AIR LOOP HVAC ZONE MIXER 2,Inlet,1
 Non-Parent Node Connection,NODE 49,AIRLOOPHVAC:ZONEMIXER,AIR LOOP HVAC ZONE MIXER 3,Outlet,1
 Non-Parent Node Connection,NODE 56,AIRLOOPHVAC:ZONEMIXER,AIR LOOP HVAC ZONE MIXER 3,Inlet,1
 Non-Parent Node Connection,NODE 63,AIRLOOPHVAC:ZONEMIXER,AIR LOOP HVAC ZONE MIXER 4,Outlet,1
 Non-Parent Node Connection,NODE 70,AIRLOOPHVAC:ZONEMIXER,AIR LOOP HVAC ZONE MIXER 4,Inlet,1
 Non-Parent Node Connection,NODE 77,AIRLOOPHVAC:ZONEMIXER,AIR LOOP HVAC ZONE MIXER 5,Outlet,1
 Non-Parent Node Connection,NODE 84,AIRLOOPHVAC:ZONEMIXER,AIR LOOP HVAC ZONE MIXER 5,Inlet,1
 Non-Parent Node Connection,NODE 28,OUTDOORAIR:MIXER,AIR LOOP HVAC OUTDOOR AIR SYSTEM 1 OUTDOOR AIR MIXER,Outlet,1
 Non-Parent Node Connection,NODE 112,OUTDOORAIR:MIXER,AIR LOOP HVAC OUTDOOR AIR SYSTEM 1 OUTDOOR AIR MIXER,Inlet,1
 Non-Parent Node Connection,NODE 113,OUTDOORAIR:MIXER,AIR LOOP HVAC OUTDOOR AIR SYSTEM 1 OUTDOOR AIR MIXER,ReliefAir,1
 Non-Parent Node Connection,NODE 19,OUTDOORAIR:MIXER,AIR LOOP HVAC OUTDOOR AIR SYSTEM 1 OUTDOOR AIR MIXER,Inlet,1
 Non-Parent Node Connection,NODE 41,OUTDOORAIR:MIXER,AIR LOOP HVAC OUTDOOR AIR SYSTEM 2 OUTDOOR AIR MIXER,Outlet,1
 Non-Parent Node Connection,NODE 114,OUTDOORAIR:MIXER,AIR LOOP HVAC OUTDOOR AIR SYSTEM 2 OUTDOOR AIR MIXER,Inlet,1
 Non-Parent Node Connection,NODE 115,OUTDOORAIR:MIXER,AIR LOOP HVAC OUTDOOR AIR SYSTEM 2 OUTDOOR AIR MIXER,ReliefAir,1
 Non-Parent Node Connection,NODE 32,OUTDOORAIR:MIXER,AIR LOOP HVAC OUTDOOR AIR SYSTEM 2 OUTDOOR AIR MIXER,Inlet,1
 Non-Parent Node Connection,NODE 55,OUTDOORAIR:MIXER,AIR LOOP HVAC OUTDOOR AIR SYSTEM 3 OUTDOOR AIR MIXER,Outlet,1
 Non-Parent Node Connection,NODE 116,OUTDOORAIR:MIXER,AIR LOOP HVAC OUTDOOR AIR SYSTEM 3 OUTDOOR AIR MIXER,Inlet,1
 Non-Parent Node Connection,NODE 117,OUTDOORAIR:MIXER,AIR LOOP HVAC OUTDOOR AIR SYSTEM 3 OUTDOOR AIR MIXER,ReliefAir,1
 Non-Parent Node Connection,NODE 46,OUTDOORAIR:MIXER,AIR LOOP HVAC OUTDOOR AIR SYSTEM 3 OUTDOOR AIR MIXER,Inlet,1
 Non-Parent Node Connection,NODE 69,OUTDOORAIR:MIXER,AIR LOOP HVAC OUTDOOR AIR SYSTEM 4 OUTDOOR AIR MIXER,Outlet,1
 Non-Parent Node Connection,NODE 118,OUTDOORAIR:MIXER,AIR LOOP HVAC OUTDOOR AIR SYSTEM 4 OUTDOOR AIR MIXER,Inlet,1
 Non-Parent Node Connection,NODE 119,OUTDOORAIR:MIXER,AIR LOOP HVAC OUTDOOR AIR SYSTEM 4 OUTDOOR AIR MIXER,ReliefAir,1
 Non-Parent Node Connection,NODE 60,OUTDOORAIR:MIXER,AIR LOOP HVAC OUTDOOR AIR SYSTEM 4 OUTDOOR AIR MIXER,Inlet,1
 Non-Parent Node Connection,NODE 83,OUTDOORAIR:MIXER,AIR LOOP HVAC OUTDOOR AIR SYSTEM 5 OUTDOOR AIR MIXER,Outlet,1
 Non-Parent Node Connection,NODE 120,OUTDOORAIR:MIXER,AIR LOOP HVAC OUTDOOR AIR SYSTEM 5 OUTDOOR AIR MIXER,Inlet,1
 Non-Parent Node Connection,NODE 121,OUTDOORAIR:MIXER,AIR LOOP HVAC OUTDOOR AIR SYSTEM 5 OUTDOOR AIR MIXER,ReliefAir,1
 Non-Parent Node Connection,NODE 74,OUTDOORAIR:MIXER,AIR LOOP HVAC OUTDOOR AIR SYSTEM 5 OUTDOOR AIR MIXER,Inlet,1
 Non-Parent Node Connection,NODE 26,FAN:CONSTANTVOLUME,FAN CONSTANT VOLUME 1,Inlet,1
 Non-Parent Node Connection,NODE 20,FAN:CONSTANTVOLUME,FAN CONSTANT VOLUME 1,Outlet,1
 Non-Parent Node Connection,NODE 39,FAN:CONSTANTVOLUME,FAN CONSTANT VOLUME 2,Inlet,1
 Non-Parent Node Connection,NODE 33,FAN:CONSTANTVOLUME,FAN CONSTANT VOLUME 2,Outlet,1
 Non-Parent Node Connection,NODE 53,FAN:CONSTANTVOLUME,FAN CONSTANT VOLUME 3,Inlet,1
 Non-Parent Node Connection,NODE 47,FAN:CONSTANTVOLUME,FAN CONSTANT VOLUME 3,Outlet,1
 Non-Parent Node Connection,NODE 67,FAN:CONSTANTVOLUME,FAN CONSTANT VOLUME 4,Inlet,1
 Non-Parent Node Connection,NODE 61,FAN:CONSTANTVOLUME,FAN CONSTANT VOLUME 4,Outlet,1
 Non-Parent Node Connection,NODE 81,FAN:CONSTANTVOLUME,FAN CONSTANT VOLUME 5,Inlet,1
 Non-Parent Node Connection,NODE 75,FAN:CONSTANTVOLUME,FAN CONSTANT VOLUME 5,Outlet,1
 Non-Parent Node Connection,NODE 28,CONTROLLER:OUTDOORAIR,CONTROLLER OUTDOOR AIR 1,Sensor,1
 Non-Parent Node Connection,NODE 24,CONTROLLER:OUTDOORAIR,CONTROLLER OUTDOOR AIR 1,Actuator,1
 Non-Parent Node Connection,NODE 113,CONTROLLER:OUTDOORAIR,CONTROLLER OUTDOOR AIR 1,Actuator,1
 Non-Parent Node Connection,NODE 19,CONTROLLER:OUTDOORAIR,CONTROLLER OUTDOOR AIR 1,Sensor,1
 Non-Parent Node Connection,NODE 41,CONTROLLER:OUTDOORAIR,CONTROLLER OUTDOOR AIR 2,Sensor,1
 Non-Parent Node Connection,NODE 37,CONTROLLER:OUTDOORAIR,CONTROLLER OUTDOOR AIR 2,Actuator,1
 Non-Parent Node Connection,NODE 115,CONTROLLER:OUTDOORAIR,CONTROLLER OUTDOOR AIR 2,Actuator,1
 Non-Parent Node Connection,NODE 32,CONTROLLER:OUTDOORAIR,CONTROLLER OUTDOOR AIR 2,Sensor,1
 Non-Parent Node Connection,NODE 55,CONTROLLER:OUTDOORAIR,CONTROLLER OUTDOOR AIR 3,Sensor,1
 Non-Parent Node Connection,NODE 51,CONTROLLER:OUTDOORAIR,CONTROLLER OUTDOOR AIR 3,Actuator,1
 Non-Parent Node Connection,NODE 117,CONTROLLER:OUTDOORAIR,CONTROLLER OUTDOOR AIR 3,Actuator,1
 Non-Parent Node Connection,NODE 46,CONTROLLER:OUTDOORAIR,CONTROLLER OUTDOOR AIR 3,Sensor,1
 Non-Parent Node Connection,NODE 69,CONTROLLER:OUTDOORAIR,CONTROLLER OUTDOOR AIR 4,Sensor,1
 Non-Parent Node Connection,NODE 65,CONTROLLER:OUTDOORAIR,CONTROLLER OUTDOOR AIR 4,Actuator,1
 Non-Parent Node Connection,NODE 119,CONTROLLER:OUTDOORAIR,CONTROLLER OUTDOOR AIR 4,Actuator,1
 Non-Parent Node Connection,NODE 60,CONTROLLER:OUTDOORAIR,CONTROLLER OUTDOOR AIR 4,Sensor,1
 Non-Parent Node Connection,NODE 83,CONTROLLER:OUTDOORAIR,CONTROLLER OUTDOOR AIR 5,Sensor,1
 Non-Parent Node Connection,NODE 79,CONTROLLER:OUTDOORAIR,CONTROLLER OUTDOOR AIR 5,Actuator,1
 Non-Parent Node Connection,NODE 121,CONTROLLER:OUTDOORAIR,CONTROLLER OUTDOOR AIR 5,Actuator,1
 Non-Parent Node Connection,NODE 74,CONTROLLER:OUTDOORAIR,CONTROLLER OUTDOOR AIR 5,Sensor,1
 Non-Parent Node Connection,NODE 24,HEATEXCHANGER:AIRTOAIR:SENSIBLEANDLATENT,SYS_3|MIXED|SHR>NONE|SC>DX|SH>C-G|SSF>CV|ZH>B-HW|ZC>NONE|SRF>NONE| ERV,Inlet,1
 Non-Parent Node Connection,NODE 112,HEATEXCHANGER:AIRTOAIR:SENSIBLEANDLATENT,SYS_3|MIXED|SHR>NONE|SC>DX|SH>C-G|SSF>CV|ZH>B-HW|ZC>NONE|SRF>NONE| ERV,Outlet,1
 Non-Parent Node Connection,NODE 113,HEATEXCHANGER:AIRTOAIR:SENSIBLEANDLATENT,SYS_3|MIXED|SHR>NONE|SC>DX|SH>C-G|SSF>CV|ZH>B-HW|ZC>NONE|SRF>NONE| ERV,Inlet,2
 Non-Parent Node Connection,NODE 25,HEATEXCHANGER:AIRTOAIR:SENSIBLEANDLATENT,SYS_3|MIXED|SHR>NONE|SC>DX|SH>C-G|SSF>CV|ZH>B-HW|ZC>NONE|SRF>NONE| ERV,Outlet,2
 Non-Parent Node Connection,NODE 37,HEATEXCHANGER:AIRTOAIR:SENSIBLEANDLATENT,SYS_3|MIXED|SHR>NONE|SC>DX|SH>C-G|SSF>CV|ZH>B-HW|ZC>NONE|SRF>NONE| 1 ERV,Inlet,1
 Non-Parent Node Connection,NODE 114,HEATEXCHANGER:AIRTOAIR:SENSIBLEANDLATENT,SYS_3|MIXED|SHR>NONE|SC>DX|SH>C-G|SSF>CV|ZH>B-HW|ZC>NONE|SRF>NONE| 1 ERV,Outlet,1
 Non-Parent Node Connection,NODE 115,HEATEXCHANGER:AIRTOAIR:SENSIBLEANDLATENT,SYS_3|MIXED|SHR>NONE|SC>DX|SH>C-G|SSF>CV|ZH>B-HW|ZC>NONE|SRF>NONE| 1 ERV,Inlet,2
 Non-Parent Node Connection,NODE 38,HEATEXCHANGER:AIRTOAIR:SENSIBLEANDLATENT,SYS_3|MIXED|SHR>NONE|SC>DX|SH>C-G|SSF>CV|ZH>B-HW|ZC>NONE|SRF>NONE| 1 ERV,Outlet,2
 Non-Parent Node Connection,NODE 51,HEATEXCHANGER:AIRTOAIR:SENSIBLEANDLATENT,SYS_3|MIXED|SHR>NONE|SC>DX|SH>C-G|SSF>CV|ZH>B-HW|ZC>NONE|SRF>NONE| 2 ERV,Inlet,1
 Non-Parent Node Connection,NODE 116,HEATEXCHANGER:AIRTOAIR:SENSIBLEANDLATENT,SYS_3|MIXED|SHR>NONE|SC>DX|SH>C-G|SSF>CV|ZH>B-HW|ZC>NONE|SRF>NONE| 2 ERV,Outlet,1
 Non-Parent Node Connection,NODE 117,HEATEXCHANGER:AIRTOAIR:SENSIBLEANDLATENT,SYS_3|MIXED|SHR>NONE|SC>DX|SH>C-G|SSF>CV|ZH>B-HW|ZC>NONE|SRF>NONE| 2 ERV,Inlet,2
 Non-Parent Node Connection,NODE 52,HEATEXCHANGER:AIRTOAIR:SENSIBLEANDLATENT,SYS_3|MIXED|SHR>NONE|SC>DX|SH>C-G|SSF>CV|ZH>B-HW|ZC>NONE|SRF>NONE| 2 ERV,Outlet,2
 Non-Parent Node Connection,NODE 65,HEATEXCHANGER:AIRTOAIR:SENSIBLEANDLATENT,SYS_3|MIXED|SHR>NONE|SC>DX|SH>C-G|SSF>CV|ZH>B-HW|ZC>NONE|SRF>NONE| 3 ERV,Inlet,1
 Non-Parent Node Connection,NODE 118,HEATEXCHANGER:AIRTOAIR:SENSIBLEANDLATENT,SYS_3|MIXED|SHR>NONE|SC>DX|SH>C-G|SSF>CV|ZH>B-HW|ZC>NONE|SRF>NONE| 3 ERV,Outlet,1
 Non-Parent Node Connection,NODE 119,HEATEXCHANGER:AIRTOAIR:SENSIBLEANDLATENT,SYS_3|MIXED|SHR>NONE|SC>DX|SH>C-G|SSF>CV|ZH>B-HW|ZC>NONE|SRF>NONE| 3 ERV,Inlet,2
 Non-Parent Node Connection,NODE 66,HEATEXCHANGER:AIRTOAIR:SENSIBLEANDLATENT,SYS_3|MIXED|SHR>NONE|SC>DX|SH>C-G|SSF>CV|ZH>B-HW|ZC>NONE|SRF>NONE| 3 ERV,Outlet,2
 Non-Parent Node Connection,NODE 79,HEATEXCHANGER:AIRTOAIR:SENSIBLEANDLATENT,SYS_3|MIXED|SHR>NONE|SC>DX|SH>C-G|SSF>CV|ZH>B-HW|ZC>NONE|SRF>NONE| 4 ERV,Inlet,1
 Non-Parent Node Connection,NODE 120,HEATEXCHANGER:AIRTOAIR:SENSIBLEANDLATENT,SYS_3|MIXED|SHR>NONE|SC>DX|SH>C-G|SSF>CV|ZH>B-HW|ZC>NONE|SRF>NONE| 4 ERV,Outlet,1
 Non-Parent Node Connection,NODE 121,HEATEXCHANGER:AIRTOAIR:SENSIBLEANDLATENT,SYS_3|MIXED|SHR>NONE|SC>DX|SH>C-G|SSF>CV|ZH>B-HW|ZC>NONE|SRF>NONE| 4 ERV,Inlet,2
 Non-Parent Node Connection,NODE 80,HEATEXCHANGER:AIRTOAIR:SENSIBLEANDLATENT,SYS_3|MIXED|SHR>NONE|SC>DX|SH>C-G|SSF>CV|ZH>B-HW|ZC>NONE|SRF>NONE| 4 ERV,Outlet,2
 Non-Parent Node Connection,NODE 28,COIL:COOLING:DX:SINGLESPEED,COILCOOLINGDXSINGLESPEED_DX 29KBTU/HR 15.0SEER,Inlet,1
 Non-Parent Node Connection,NODE 27,COIL:COOLING:DX:SINGLESPEED,COILCOOLINGDXSINGLESPEED_DX 29KBTU/HR 15.0SEER,Outlet,1
 Non-Parent Node Connection,NODE 41,COIL:COOLING:DX:SINGLESPEED,COILCOOLINGDXSINGLESPEED_DX 1 23KBTU/HR 15.0SEER,Inlet,1
 Non-Parent Node Connection,NODE 40,COIL:COOLING:DX:SINGLESPEED,COILCOOLINGDXSINGLESPEED_DX 1 23KBTU/HR 15.0SEER,Outlet,1
 Non-Parent Node Connection,NODE 55,COIL:COOLING:DX:SINGLESPEED,COILCOOLINGDXSINGLESPEED_DX 2 15KBTU/HR 15.0SEER,Inlet,1
 Non-Parent Node Connection,NODE 54,COIL:COOLING:DX:SINGLESPEED,COILCOOLINGDXSINGLESPEED_DX 2 15KBTU/HR 15.0SEER,Outlet,1
 Non-Parent Node Connection,NODE 69,COIL:COOLING:DX:SINGLESPEED,COILCOOLINGDXSINGLESPEED_DX 3 21KBTU/HR 15.0SEER,Inlet,1
 Non-Parent Node Connection,NODE 68,COIL:COOLING:DX:SINGLESPEED,COILCOOLINGDXSINGLESPEED_DX 3 21KBTU/HR 15.0SEER,Outlet,1
 Non-Parent Node Connection,NODE 83,COIL:COOLING:DX:SINGLESPEED,COILCOOLINGDXSINGLESPEED_DX 4 41KBTU/HR 15.0SEER,Inlet,1
 Non-Parent Node Connection,NODE 82,COIL:COOLING:DX:SINGLESPEED,COILCOOLINGDXSINGLESPEED_DX 4 41KBTU/HR 15.0SEER,Outlet,1
 Non-Parent Node Connection,NODE 27,COIL:HEATING:FUEL,COIL HEATING GAS 1,Inlet,1
 Non-Parent Node Connection,NODE 26,COIL:HEATING:FUEL,COIL HEATING GAS 1,Outlet,1
 Non-Parent Node Connection,NODE 26,COIL:HEATING:FUEL,COIL HEATING GAS 1,Sensor,1
 Non-Parent Node Connection,NODE 40,COIL:HEATING:FUEL,COIL HEATING GAS 2,Inlet,1
 Non-Parent Node Connection,NODE 39,COIL:HEATING:FUEL,COIL HEATING GAS 2,Outlet,1
 Non-Parent Node Connection,NODE 39,COIL:HEATING:FUEL,COIL HEATING GAS 2,Sensor,1
 Non-Parent Node Connection,NODE 54,COIL:HEATING:FUEL,COIL HEATING GAS 3,Inlet,1
 Non-Parent Node Connection,NODE 53,COIL:HEATING:FUEL,COIL HEATING GAS 3,Outlet,1
 Non-Parent Node Connection,NODE 53,COIL:HEATING:FUEL,COIL HEATING GAS 3,Sensor,1
 Non-Parent Node Connection,NODE 68,COIL:HEATING:FUEL,COIL HEATING GAS 4,Inlet,1
 Non-Parent Node Connection,NODE 67,COIL:HEATING:FUEL,COIL HEATING GAS 4,Outlet,1
 Non-Parent Node Connection,NODE 67,COIL:HEATING:FUEL,COIL HEATING GAS 4,Sensor,1
 Non-Parent Node Connection,NODE 82,COIL:HEATING:FUEL,COIL HEATING GAS 5,Inlet,1
 Non-Parent Node Connection,NODE 81,COIL:HEATING:FUEL,COIL HEATING GAS 5,Outlet,1
 Non-Parent Node Connection,NODE 81,COIL:HEATING:FUEL,COIL HEATING GAS 5,Sensor,1
 Non-Parent Node Connection,NODE 2,PUMP:VARIABLESPEED,PUMP VARIABLE SPEED 1,Inlet,1
 Non-Parent Node Connection,NODE 11,PUMP:VARIABLESPEED,PUMP VARIABLE SPEED 1,Outlet,1
 Non-Parent Node Connection,NODE 88,PUMP:CONSTANTSPEED,MAIN SERVICE WATER LOOP CIRCULATOR PUMP,Inlet,1
 Non-Parent Node Connection,NODE 94,PUMP:CONSTANTSPEED,MAIN SERVICE WATER LOOP CIRCULATOR PUMP,Outlet,1
