{
   "completed_at" : "20220518T131258Z",
   "completed_status" : "Success",
   "created_at" : "20220518T131249Z",
   "current_step" : 0,
   "eplusout_err" : "Program Version,EnergyPlus, Version 9.5.0-de239b2e5f, YMD=2022.05.18 09:12,\n   ************* Beginning Zone Sizing Calculations\n   ** Warning ** ProcessScheduleInput: Schedule:Day:Interval=\"ECONOMIZER MAX OA FRACTION 100 PCT DEFAULT\", Blank Schedule Type Limits Name input -- will not be validated.\n   ** Warning ** ProcessScheduleInput: Schedule:Day:Interval=\"SCHEDULE DAY 1\", Blank Schedule Type Limits Name input -- will not be validated.\n   ** Warning ** ProcessScheduleInput: Schedule:Day:Interval=\"SCHEDULE DAY 10\", Blank Schedule Type Limits Name input -- will not be validated.\n   ** Warning ** ProcessScheduleInput: Schedule:Day:Interval=\"SCHEDULE DAY 11\", Blank Schedule Type Limits Name input -- will not be validated.\n   ** Warning ** ProcessScheduleInput: Schedule:Day:Interval=\"SCHEDULE DAY 12\", Blank Schedule Type Limits Name input -- will not be validated.\n   ** Warning ** ProcessScheduleInput: Schedule:Day:Interval=\"SCHEDULE DAY 13\", Blank Schedule Type Limits Name input -- will not be validated.\n   ** Warning ** ProcessScheduleInput: Schedule:Day:Interval=\"SCHEDULE DAY 14\", Blank Schedule Type Limits Name input -- will not be validated.\n   ** Warning ** ProcessScheduleInput: Schedule:Day:Interval=\"SCHEDULE DAY 15\", Blank Schedule Type Limits Name input -- will not be validated.\n   ** Warning ** ProcessScheduleInput: Schedule:Day:Interval=\"SCHEDULE DAY 16\", Blank Schedule Type Limits Name input -- will not be validated.\n   ** Warning ** ProcessScheduleInput: Schedule:Day:Interval=\"SCHEDULE DAY 17\", Blank Schedule Type Limits Name input -- will not be validated.\n   ** Warning ** ProcessScheduleInput: Schedule:Day:Interval=\"SCHEDULE DAY 18\", Blank Schedule Type Limits Name input -- will not be validated.\n   ** Warning ** ProcessScheduleInput: Schedule:Day:Interval=\"SCHEDULE DAY 19\", Blank Schedule Type Limits Name input -- will not be validated.\n   ** Warning ** ProcessScheduleInput: Schedule:Day:Interval=\"SCHEDULE DAY 20\", Blank Schedule Type Limits Name input -- will not be validated.\n   ** Warning ** ProcessScheduleInput: Schedule:Day:Interval=\"SCHEDULE DAY 21\", Blank Schedule Type Limits Name input -- will not be validated.\n   ** Warning ** ProcessScheduleInput: Schedule:Day:Interval=\"SCHEDULE DAY 22\", Blank Schedule Type Limits Name input -- will not be validated.\n   ** Warning ** ProcessScheduleInput: Schedule:Day:Interval=\"SCHEDULE DAY 23\", Blank Schedule Type Limits Name input -- will not be validated.\n   ** Warning ** ProcessScheduleInput: Schedule:Day:Interval=\"SCHEDULE DAY 24\", Blank Schedule Type Limits Name input -- will not be validated.\n   ** Warning ** ProcessScheduleInput: Schedule:Day:Interval=\"SCHEDULE DAY 25\", Blank Schedule Type Limits Name input -- will not be validated.\n   ** Warning ** ProcessScheduleInput: Schedule:Day:Interval=\"SCHEDULE DAY 26\", Blank Schedule Type Limits Name input -- will not be validated.\n   ** Warning ** ProcessScheduleInput: Schedule:Day:Interval=\"SCHEDULE DAY 27\", Blank Schedule Type Limits Name input -- will not be validated.\n   ** Warning ** ProcessScheduleInput: Schedule:Day:Interval=\"SCHEDULE DAY 28\", Blank Schedule Type Limits Name input -- will not be validated.\n   ** Warning ** ProcessScheduleInput: Schedule:Day:Interval=\"SCHEDULE DAY 29\", Blank Schedule Type Limits Name input -- will not be validated.\n   ** Warning ** ProcessScheduleInput: Schedule:Day:Interval=\"SCHEDULE DAY 3\", Blank Schedule Type Limits Name input -- will not be validated.\n   ** Warning ** ProcessScheduleInput: Schedule:Day:Interval=\"SCHEDULE DAY 30\", Blank Schedule Type Limits Name input -- will not be validated.\n   ** Warning ** ProcessScheduleInput: Schedule:Day:Interval=\"SCHEDULE DAY 31\", Blank Schedule Type Limits Name input -- will not be validated.\n   ** Warning ** ProcessScheduleInput: Schedule:Day:Interval=\"SCHEDULE DAY 32\", Blank Schedule Type Limits Name input -- will not be validated.\n   ** Warning ** ProcessScheduleInput: Schedule:Day:Interval=\"SCHEDULE DAY 33\", Blank Schedule Type Limits Name input -- will not be validated.\n   ** Warning ** ProcessScheduleInput: Schedule:Day:Interval=\"SCHEDULE DAY 34\", Blank Schedule Type Limits Name input -- will not be validated.\n   ** Warning ** ProcessScheduleInput: Schedule:Day:Interval=\"SCHEDULE DAY 35\", Blank Schedule Type Limits Name input -- will not be validated.\n   ** Warning ** ProcessScheduleInput: Schedule:Day:Interval=\"SCHEDULE DAY 36\", Blank Schedule Type Limits Name input -- will not be validated.\n   ** Warning ** ProcessScheduleInput: Schedule:Day:Interval=\"SCHEDULE DAY 37\", Blank Schedule Type Limits Name input -- will not be validated.\n   ** Warning ** ProcessScheduleInput: Schedule:Day:Interval=\"SCHEDULE DAY 38\", Blank Schedule Type Limits Name input -- will not be validated.\n   ** Warning ** ProcessScheduleInput: Schedule:Day:Interval=\"SCHEDULE DAY 39\", Blank Schedule Type Limits Name input -- will not be validated.\n   ** Warning ** ProcessScheduleInput: Schedule:Day:Interval=\"SCHEDULE DAY 4\", Blank Schedule Type Limits Name input -- will not be validated.\n   ** Warning ** ProcessScheduleInput: Schedule:Day:Interval=\"SCHEDULE DAY 40\", Blank Schedule Type Limits Name input -- will not be validated.\n   ** Warning ** ProcessScheduleInput: Schedule:Day:Interval=\"SCHEDULE DAY 41\", Blank Schedule Type Limits Name input -- will not be validated.\n   ** Warning ** ProcessScheduleInput: Schedule:Day:Interval=\"SCHEDULE DAY 42\", Blank Schedule Type Limits Name input -- will not be validated.\n   ** Warning ** ProcessScheduleInput: Schedule:Day:Interval=\"SCHEDULE DAY 43\", Blank Schedule Type Limits Name input -- will not be validated.\n   ** Warning ** ProcessScheduleInput: Schedule:Day:Interval=\"SCHEDULE DAY 44\", Blank Schedule Type Limits Name input -- will not be validated.\n   ** Warning ** ProcessScheduleInput: Schedule:Day:Interval=\"SCHEDULE DAY 5\", Blank Schedule Type Limits Name input -- will not be validated.\n   ** Warning ** ProcessScheduleInput: Schedule:Day:Interval=\"SCHEDULE DAY 6\", Blank Schedule Type Limits Name input -- will not be validated.\n   ** Warning ** ProcessScheduleInput: Schedule:Day:Interval=\"SCHEDULE DAY 7\", Blank Schedule Type Limits Name input -- will not be validated.\n   ** Warning ** ProcessScheduleInput: Schedule:Year=\"ECONOMIZER MAX OA FRACTION 100 PCT\", Blank Schedule Type Limits Name input -- will not be validated.\n   ** Warning ** ProcessScheduleInput: Schedule:Year=\"SCHEDULE RULESET 10\", Blank Schedule Type Limits Name input -- will not be validated.\n   ** Warning ** ProcessScheduleInput: Schedule:Year=\"SCHEDULE RULESET 11\", Blank Schedule Type Limits Name input -- will not be validated.\n   ** Warning ** ProcessScheduleInput: Schedule:Year=\"SCHEDULE RULESET 12\", Blank Schedule Type Limits Name input -- will not be validated.\n   ** Warning ** ProcessScheduleInput: Schedule:Year=\"SCHEDULE RULESET 13\", Blank Schedule Type Limits Name input -- will not be validated.\n   ** Warning ** ProcessScheduleInput: Schedule:Year=\"SCHEDULE RULESET 14\", Blank Schedule Type Limits Name input -- will not be validated.\n   ** Warning ** ProcessScheduleInput: Schedule:Year=\"SCHEDULE RULESET 15\", Blank Schedule Type Limits Name input -- will not be validated.\n   ** Warning ** ProcessScheduleInput: Schedule:Year=\"SCHEDULE RULESET 16\", Blank Schedule Type Limits Name input -- will not be validated.\n   ** Warning ** ProcessScheduleInput: Schedule:Year=\"SCHEDULE RULESET 17\", Blank Schedule Type Limits Name input -- will not be validated.\n   ** Warning ** ProcessScheduleInput: Schedule:Year=\"SCHEDULE RULESET 3\", Blank Schedule Type Limits Name input -- will not be validated.\n   ** Warning ** ProcessScheduleInput: Schedule:Year=\"SCHEDULE RULESET 4\", Blank Schedule Type Limits Name input -- will not be validated.\n   ** Warning ** ProcessScheduleInput: Schedule:Year=\"SCHEDULE RULESET 5\", Blank Schedule Type Limits Name input -- will not be validated.\n   ** Warning ** ProcessScheduleInput: Schedule:Year=\"SCHEDULE RULESET 6\", Blank Schedule Type Limits Name input -- will not be validated.\n   ** Warning ** ProcessScheduleInput: Schedule:Year=\"SCHEDULE RULESET 7\", Blank Schedule Type Limits Name input -- will not be validated.\n   ** Warning ** ProcessScheduleInput: Schedule:Year=\"SCHEDULE RULESET 8\", Blank Schedule Type Limits Name input -- will not be validated.\n   ** Warning ** ProcessScheduleInput: Schedule:Year=\"SCHEDULE RULESET 9\", Blank Schedule Type Limits Name input -- will not be validated.\n   ** Warning ** ProcessScheduleInput: Schedule:Constant=\"ALWAYS OFF DISCRETE\", Blank Schedule Type Limits Name input -- will not be validated.\n   ** Warning ** ProcessScheduleInput: Schedule:Constant=\"ALWAYS ON CONTINUOUS\", Blank Schedule Type Limits Name input -- will not be validated.\n   ** Warning ** CheckUsedConstructions: There are 30 nominally unused constructions in input.\n   **   ~~~   ** For explicit details on each unused construction, use Output:Diagnostics,DisplayExtraWarnings;\n   ** Warning ** GetInternalHeatGains: People=\"OFFICE WHOLEBUILDING PEOPLE\" has comfort related schedules but no thermal comfort model selected.\n   **   ~~~   ** If schedules are specified for air velocity, clothing insulation, and/or work efficiency but no thermal comfort\n   **   ~~~   ** thermal comfort model is selected, the schedules will be listed as unused schedules in the .err file.\n   **   ~~~   ** To avoid these errors, select a valid thermal comfort model or eliminate these schedules in the PEOPLE input.\n   ** Warning ** GetInternalHeatGains: People=\"OFFICE WHOLEBUILDING PEOPLE\" has comfort related schedules but no thermal comfort model selected.\n   **   ~~~   ** If schedules are specified for air velocity, clothing insulation, and/or work efficiency but no thermal comfort\n   **   ~~~   ** thermal comfort model is selected, the schedules will be listed as unused schedules in the .err file.\n   **   ~~~   ** To avoid these errors, select a valid thermal comfort model or eliminate these schedules in the PEOPLE input.\n   ** Warning ** GetInternalHeatGains: People=\"OFFICE WHOLEBUILDING PEOPLE\" has comfort related schedules but no thermal comfort model selected.\n   **   ~~~   ** If schedules are specified for air velocity, clothing insulation, and/or work efficiency but no thermal comfort\n   **   ~~~   ** thermal comfort model is selected, the schedules will be listed as unused schedules in the .err file.\n   **   ~~~   ** To avoid these errors, select a valid thermal comfort model or eliminate these schedules in the PEOPLE input.\n   ** Warning ** GetInternalHeatGains: People=\"OFFICE WHOLEBUILDING PEOPLE\" has comfort related schedules but no thermal comfort model selected.\n   **   ~~~   ** If schedules are specified for air velocity, clothing insulation, and/or work efficiency but no thermal comfort\n   **   ~~~   ** thermal comfort model is selected, the schedules will be listed as unused schedules in the .err file.\n   **   ~~~   ** To avoid these errors, select a valid thermal comfort model or eliminate these schedules in the PEOPLE input.\n   ** Warning ** GetInternalHeatGains: People=\"OFFICE WHOLEBUILDING PEOPLE\" has comfort related schedules but no thermal comfort model selected.\n   **   ~~~   ** If schedules are specified for air velocity, clothing insulation, and/or work efficiency but no thermal comfort\n   **   ~~~   ** thermal comfort model is selected, the schedules will be listed as unused schedules in the .err file.\n   **   ~~~   ** To avoid these errors, select a valid thermal comfort model or eliminate these schedules in the PEOPLE input.\n   ************* Beginning System Sizing Calculations\n   ************* Beginning Plant Sizing Calculations\n   ** Warning ** GetOAControllerInputs: Controller:MechanicalVentilation=\"CONTROLLER MECHANICAL VENTILATION 1\n   **   ~~~   ** Cannot locate a matching DesignSpecification:ZoneAirDistribution object for Zone=\"ALL_ST=WHOLEBUILDING_FL=STORY 1_SCH=A\".\n   **   ~~~   ** Using default zone air distribution effectiveness of 1.0 for heating and cooling.\n   ** Warning ** GetOAControllerInputs: Controller:MechanicalVentilation=\"CONTROLLER MECHANICAL VENTILATION 2\n   **   ~~~   ** Cannot locate a matching DesignSpecification:ZoneAirDistribution object for Zone=\"ALL_ST=WHOLEBUILDING_FL=STORY 1_SCH=A 5\".\n   **   ~~~   ** Using default zone air distribution effectiveness of 1.0 for heating and cooling.\n   ** Warning ** GetOAControllerInputs: Controller:MechanicalVentilation=\"CONTROLLER MECHANICAL VENTILATION 3\n   **   ~~~   ** Cannot locate a matching DesignSpecification:ZoneAirDistribution object for Zone=\"ALL_ST=WHOLEBUILDING_FL=STORY 1_SCH=A 6\".\n   **   ~~~   ** Using default zone air distribution effectiveness of 1.0 for heating and cooling.\n   ** Warning ** GetOAControllerInputs: Controller:MechanicalVentilation=\"CONTROLLER MECHANICAL VENTILATION 4\n   **   ~~~   ** Cannot locate a matching DesignSpecification:ZoneAirDistribution object for Zone=\"ALL_ST=WHOLEBUILDING_FL=STORY 1_SCH=A 7\".\n   **   ~~~   ** Using default zone air distribution effectiveness of 1.0 for heating and cooling.\n   ** Warning ** GetOAControllerInputs: Controller:MechanicalVentilation=\"CONTROLLER MECHANICAL VENTILATION 5\n   **   ~~~   ** Cannot locate a matching DesignSpecification:ZoneAirDistribution object for Zone=\"ALL_ST=WHOLEBUILDING_FL=STORY 1_SCH=A 8\".\n   **   ~~~   ** Using default zone air distribution effectiveness of 1.0 for heating and cooling.\n   ** Warning ** GetDXCoils: Coil:Cooling:DX:SingleSpeed=\"COILCOOLINGDXSINGLESPEED_DX 29KBTU/HR 15.0SEER\", invalid\n   **   ~~~   ** ...Part Load Fraction Correlation Curve Name = DXCOOL-NECB2011-REF-COOLPLFFPLR has out of range value.\n   **   ~~~   ** ...Curve maximum must be <= 1.0, curve max at PLR = 0.99 is 1.015\n   **   ~~~   ** ...Setting curve maximum to 1.0 and simulation continues.\n   ** Warning ** The Standard Ratings is calculated for Coil:Cooling:DX:SingleSpeed = COILCOOLINGDXSINGLESPEED_DX 29KBTU/HR 15.0SEER but not at the AHRI test condition due to curve out of bound.\n   **   ~~~   **  Review the Standard Ratings calculations in the Engineering Reference for this coil type. Also, use Output:Diagnostics, DisplayExtraWarnings for further guidance.\n   ** Warning ** The Standard Ratings is calculated for Coil:Cooling:DX:SingleSpeed = COILCOOLINGDXSINGLESPEED_DX 1 23KBTU/HR 15.0SEER but not at the AHRI test condition due to curve out of bound.\n   **   ~~~   **  Review the Standard Ratings calculations in the Engineering Reference for this coil type. Also, use Output:Diagnostics, DisplayExtraWarnings for further guidance.\n   ** Warning ** The Standard Ratings is calculated for Coil:Cooling:DX:SingleSpeed = COILCOOLINGDXSINGLESPEED_DX 2 15KBTU/HR 15.0SEER but not at the AHRI test condition due to curve out of bound.\n   **   ~~~   **  Review the Standard Ratings calculations in the Engineering Reference for this coil type. Also, use Output:Diagnostics, DisplayExtraWarnings for further guidance.\n   ** Warning ** The Standard Ratings is calculated for Coil:Cooling:DX:SingleSpeed = COILCOOLINGDXSINGLESPEED_DX 3 21KBTU/HR 15.0SEER but not at the AHRI test condition due to curve out of bound.\n   **   ~~~   **  Review the Standard Ratings calculations in the Engineering Reference for this coil type. Also, use Output:Diagnostics, DisplayExtraWarnings for further guidance.\n   ** Warning ** The Standard Ratings is calculated for Coil:Cooling:DX:SingleSpeed = COILCOOLINGDXSINGLESPEED_DX 4 41KBTU/HR 15.0SEER but not at the AHRI test condition due to curve out of bound.\n   **   ~~~   **  Review the Standard Ratings calculations in the Engineering Reference for this coil type. Also, use Output:Diagnostics, DisplayExtraWarnings for further guidance.\n   ** Warning ** Output:Meter: invalid Key Name=\"DISTRICTCOOLING:FACILITY\" - not found.\n   ** Warning ** Output:Meter: invalid Key Name=\"DISTRICTHEATING:FACILITY\" - not found.\n   ** Warning ** Output:Meter:MeterFileOnly requested for \"Electricity:Facility\" (TimeStep), already on \"Output:Meter\". Will report to both eplusout.eso and eplusout.mtr\n   ************* Testing Individual Branch Integrity\n   ************* All Branches passed integrity testing\n   ************* Testing Individual Supply Air Path Integrity\n   ************* All Supply Air Paths passed integrity testing\n   ************* Testing Individual Return Air Path Integrity\n   ************* All Return Air Paths passed integrity testing\n   ************* No node connection errors were found.\n   ** Warning ** Output:Table:Monthly requested with SimulationControl Run Simulation for Weather File Run Periods set to No so Output:Table:Monthly will not be generated\n   ** Warning ** CalcDoe2DXCoil: Coil:Cooling:DX:SingleSpeed \"COILCOOLINGDXSINGLESPEED_DX 29KBTU/HR 15.0SEER\" - Air-cooled condenser inlet dry-bulb temperature below 0 C. Outdoor dry-bulb temperature = -15.50\n   **   ~~~   **  ... Occurrence info = WINDSOR INTL AP ANN HTG 99.6% CONDNS DB HVAC Sizing Pass 1, 01/21 21:10 - 21:11\n   **   ~~~   ** ... Operation at low ambient temperatures may require special performance curves.\n   ** Warning ** CalcDoe2DXCoil: Coil:Cooling:DX:SingleSpeed \"COILCOOLINGDXSINGLESPEED_DX 1 23KBTU/HR 15.0SEER\" - Air-cooled condenser inlet dry-bulb temperature below 0 C. Outdoor dry-bulb temperature = -15.50\n   **   ~~~   **  ... Occurrence info = WINDSOR INTL AP ANN HTG 99.6% CONDNS DB HVAC Sizing Pass 1, 01/21 21:10 - 21:11\n   **   ~~~   ** ... Operation at low ambient temperatures may require special performance curves.\n   ** Warning ** CalcDoe2DXCoil: Coil:Cooling:DX:SingleSpeed \"COILCOOLINGDXSINGLESPEED_DX 2 15KBTU/HR 15.0SEER\" - Air-cooled condenser inlet dry-bulb temperature below 0 C. Outdoor dry-bulb temperature = -15.50\n   **   ~~~   **  ... Occurrence info = WINDSOR INTL AP ANN HTG 99.6% CONDNS DB HVAC Sizing Pass 1, 01/21 21:10 - 21:11\n   **   ~~~   ** ... Operation at low ambient temperatures may require special performance curves.\n   ** Warning ** CalcDoe2DXCoil: Coil:Cooling:DX:SingleSpeed \"COILCOOLINGDXSINGLESPEED_DX 3 21KBTU/HR 15.0SEER\" - Air-cooled condenser inlet dry-bulb temperature below 0 C. Outdoor dry-bulb temperature = -15.50\n   **   ~~~   **  ... Occurrence info = WINDSOR INTL AP ANN HTG 99.6% CONDNS DB HVAC Sizing Pass 1, 01/21 21:10 - 21:11\n   **   ~~~   ** ... Operation at low ambient temperatures may require special performance curves.\n   ** Warning ** CalcDoe2DXCoil: Coil:Cooling:DX:SingleSpeed \"COILCOOLINGDXSINGLESPEED_DX 4 41KBTU/HR 15.0SEER\" - Air-cooled condenser inlet dry-bulb temperature below 0 C. Outdoor dry-bulb temperature = -15.50\n   **   ~~~   **  ... Occurrence info = WINDSOR INTL AP ANN HTG 99.6% CONDNS DB HVAC Sizing Pass 1, 01/21 21:10 - 21:11\n   **   ~~~   ** ... Operation at low ambient temperatures may require special performance curves.\n   ** Warning ** CalcDoe2DXCoil: Coil:Cooling:DX:SingleSpeed \"COILCOOLINGDXSINGLESPEED_DX 4 41KBTU/HR 15.0SEER\" - Full load outlet air dry-bulb temperature < 2C. This indicates the possibility of coil frost/freeze. Outlet temperature = 0.94 C.\n   **   ~~~   **  ...Occurrence info = WINDSOR INTL AP ANN HTG 99.6% CONDNS DB HVAC Sizing Pass 1, 01/21 21:20 - 21:22\n   **   ~~~   ** ... Possible reasons for low outlet air dry-bulb temperatures are: This DX coil\n   **   ~~~   **    1) may have a low inlet air dry-bulb temperature. Inlet air temperature = 16.808 C.\n   **   ~~~   **    2) may have a low air flow rate per watt of cooling capacity. Check inputs.\n   **   ~~~   **    3) is used as part of a HX assisted cooling coil which uses a high sensible effectiveness. Check inputs.\n   ************* Beginning Simulation\n   ************* Simulation Error Summary *************\n   ************* There are 8 unused objects in input.\n   ************* Use Output:Diagnostics,DisplayUnusedObjects; to see them.\n   ************* There are 9 unused schedules in input.\n   ************* There are 9 unused week schedules in input.\n   ************* There are 37 unused day schedules in input.\n   ************* Use Output:Diagnostics,DisplayUnusedSchedules; to see them.\n   *************\n   ************* ===== Recurring Error Summary =====\n   ************* The following recurring error messages occurred.\n   *************\n   *************  ** Warning ** CalcDoe2DXCoil: Coil:Cooling:DX:SingleSpeed=\"COILCOOLINGDXSINGLESPEED_DX 29KBTU/HR 15.0SEER\" - Low condenser dry-bulb temperature error continues...\n   *************  **   ~~~   **   This error occurred 2 total times;\n   *************  **   ~~~   **   during Warmup 0 times;\n   *************  **   ~~~   **   during Sizing 0 times.\n   *************  **   ~~~   **   Max=-15.5 [C]  Min=-15.5 [C]\n   *************\n   *************  ** Warning ** CalcDoe2DXCoil: Coil:Cooling:DX:SingleSpeed=\"COILCOOLINGDXSINGLESPEED_DX 1 23KBTU/HR 15.0SEER\" - Low condenser dry-bulb temperature error continues...\n   *************  **   ~~~   **   This error occurred 2 total times;\n   *************  **   ~~~   **   during Warmup 0 times;\n   *************  **   ~~~   **   during Sizing 0 times.\n   *************  **   ~~~   **   Max=-15.5 [C]  Min=-15.5 [C]\n   *************\n   *************  ** Warning ** CalcDoe2DXCoil: Coil:Cooling:DX:SingleSpeed=\"COILCOOLINGDXSINGLESPEED_DX 2 15KBTU/HR 15.0SEER\" - Low condenser dry-bulb temperature error continues...\n   *************  **   ~~~   **   This error occurred 2 total times;\n   *************  **   ~~~   **   during Warmup 0 times;\n   *************  **   ~~~   **   during Sizing 0 times.\n   *************  **   ~~~   **   Max=-15.5 [C]  Min=-15.5 [C]\n   *************\n   *************  ** Warning ** CalcDoe2DXCoil: Coil:Cooling:DX:SingleSpeed=\"COILCOOLINGDXSINGLESPEED_DX 3 21KBTU/HR 15.0SEER\" - Low condenser dry-bulb temperature error continues...\n   *************  **   ~~~   **   This error occurred 2 total times;\n   *************  **   ~~~   **   during Warmup 0 times;\n   *************  **   ~~~   **   during Sizing 0 times.\n   *************  **   ~~~   **   Max=-15.5 [C]  Min=-15.5 [C]\n   *************\n   *************  ** Warning ** CalcDoe2DXCoil: Coil:Cooling:DX:SingleSpeed=\"COILCOOLINGDXSINGLESPEED_DX 4 41KBTU/HR 15.0SEER\" - Low condenser dry-bulb temperature error continues...\n   *************  **   ~~~   **   This error occurred 4 total times;\n   *************  **   ~~~   **   during Warmup 0 times;\n   *************  **   ~~~   **   during Sizing 0 times.\n   *************  **   ~~~   **   Max=-15.5 [C]  Min=-15.5 [C]\n   *************\n   *************  ** Warning ** CalcDoe2DXCoil: Coil:Cooling:DX:SingleSpeed=\"COILCOOLINGDXSINGLESPEED_DX 4 41KBTU/HR 15.0SEER\" - Full load outlet temperature indicates a possibility of frost/freeze error continues. Outlet air temperature statistics follow:\n   *************  **   ~~~   **   This error occurred 2 total times;\n   *************  **   ~~~   **   during Warmup 0 times;\n   *************  **   ~~~   **   during Sizing 0 times.\n   *************  **   ~~~   **   Max=0.937928  Min=0.937928\n   *************\n   *************\n   ************* ===== Final Error Summary =====\n   ************* The following error categories occurred.  Consider correcting or noting.\n   ************* Nominally Unused Constructions\n   ************* ..The nominally unused constructions warning is provided to alert you to potential conditions that can cause\n   ************* ..extra time during simulation. Each construction is calculated by the algorithm indicated in the HeatBalanceAlgorithm\n   ************* ..object. You may remove the constructions indicated (when you use the DisplayExtraWarnings option).\n   *************\n   ************* EnergyPlus Warmup Error Summary. During Warmup: 0 Warning; 0 Severe Errors.\n   ************* EnergyPlus Sizing Error Summary. During Sizing: 66 Warning; 0 Severe Errors.\n   ************* EnergyPlus Completed Successfully-- 95 Warning; 0 Severe Errors; Elapsed Time=00hr 00min  2.15sec\n",
   "file_paths" : 
   [
      "D:/All_btap/OpenStudioMeasures_Aug30_2021_PATFinalizationScript/openstudio-measures/measures_10Feb/nrc_create_from_existing_osm_file/tests/SR2/generated_files",
      "./files",
      "./weather",
      "../../files",
      "../../weather",
      "./"
   ],
   "hash" : "E3D408E8",
   "seed_file" : "in.osm",
   "started_at" : "20220518T131252Z",
   "steps" : [],
   "updated_at" : "20220518T131258Z",
   "weather_file" : "in.epw"
}