{
  "completed_at": "20211224T152005Z",
  "completed_status": "Success",
  "created_at": "2021-12-24 15:17:46 +0000",
  "current_step": 3,
  "description": "",
  "eplusout_err": "Program Version,EnergyPlus, Version 9.3.0-baff08990c, YMD=2021.12.24 15:18,\n   ************* Beginning Zone Sizing Calculations\n   ** Warning ** ProcessScheduleInput: Schedule:Day:Interval=\"ECONOMIZER MAX OA FRACTION 100 PCT DEFAULT\", Blank Schedule Type Limits Name input -- will not be validated.\n   ** Warning ** ProcessScheduleInput: Schedule:Day:Interval=\"SCHEDULE DAY 1\", Blank Schedule Type Limits Name input -- will not be validated.\n   ** Warning ** ProcessScheduleInput: Schedule:Day:Interval=\"SCHEDULE DAY 10\", Blank Schedule Type Limits Name input -- will not be validated.\n   ** Warning ** ProcessScheduleInput: Schedule:Day:Interval=\"SCHEDULE DAY 11\", Blank Schedule Type Limits Name input -- will not be validated.\n   ** Warning ** ProcessScheduleInput: Schedule:Day:Interval=\"SCHEDULE DAY 12\", Blank Schedule Type Limits Name input -- will not be validated.\n   ** Warning ** ProcessScheduleInput: Schedule:Day:Interval=\"SCHEDULE DAY 13\", Blank Schedule Type Limits Name input -- will not be validated.\n   ** Warning ** ProcessScheduleInput: Schedule:Day:Interval=\"SCHEDULE DAY 14\", Blank Schedule Type Limits Name input -- will not be validated.\n   ** Warning ** ProcessScheduleInput: Schedule:Day:Interval=\"SCHEDULE DAY 15\", Blank Schedule Type Limits Name input -- will not be validated.\n   ** Warning ** ProcessScheduleInput: Schedule:Day:Interval=\"SCHEDULE DAY 16\", Blank Schedule Type Limits Name input -- will not be validated.\n   ** Warning ** ProcessScheduleInput: Schedule:Day:Interval=\"SCHEDULE DAY 17\", Blank Schedule Type Limits Name input -- will not be validated.\n   ** Warning ** ProcessScheduleInput: Schedule:Day:Interval=\"SCHEDULE DAY 18\", Blank Schedule Type Limits Name input -- will not be validated.\n   ** Warning ** ProcessScheduleInput: Schedule:Day:Interval=\"SCHEDULE DAY 19\", Blank Schedule Type Limits Name input -- will not be validated.\n   ** Warning ** ProcessScheduleInput: Schedule:Day:Interval=\"SCHEDULE DAY 2\", Blank Schedule Type Limits Name input -- will not be validated.\n   ** Warning ** ProcessScheduleInput: Schedule:Day:Interval=\"SCHEDULE DAY 20\", Blank Schedule Type Limits Name input -- will not be validated.\n   ** Warning ** ProcessScheduleInput: Schedule:Day:Interval=\"SCHEDULE DAY 21\", Blank Schedule Type Limits Name input -- will not be validated.\n   ** Warning ** ProcessScheduleInput: Schedule:Day:Interval=\"SCHEDULE DAY 22\", Blank Schedule Type Limits Name input -- will not be validated.\n   ** Warning ** ProcessScheduleInput: Schedule:Day:Interval=\"SCHEDULE DAY 23\", Blank Schedule Type Limits Name input -- will not be validated.\n   ** Warning ** ProcessScheduleInput: Schedule:Day:Interval=\"SCHEDULE DAY 24\", Blank Schedule Type Limits Name input -- will not be validated.\n   ** Warning ** ProcessScheduleInput: Schedule:Day:Interval=\"SCHEDULE DAY 25\", Blank Schedule Type Limits Name input -- will not be validated.\n   ** Warning ** ProcessScheduleInput: Schedule:Day:Interval=\"SCHEDULE DAY 26\", Blank Schedule Type Limits Name input -- will not be validated.\n   ** Warning ** ProcessScheduleInput: Schedule:Day:Interval=\"SCHEDULE DAY 27\", Blank Schedule Type Limits Name input -- will not be validated.\n   ** Warning ** ProcessScheduleInput: Schedule:Day:Interval=\"SCHEDULE DAY 28\", Blank Schedule Type Limits Name input -- will not be validated.\n   ** Warning ** ProcessScheduleInput: Schedule:Day:Interval=\"SCHEDULE DAY 29\", Blank Schedule Type Limits Name input -- will not be validated.\n   ** Warning ** ProcessScheduleInput: Schedule:Day:Interval=\"SCHEDULE DAY 30\", Blank Schedule Type Limits Name input -- will not be validated.\n   ** Warning ** ProcessScheduleInput: Schedule:Day:Interval=\"SCHEDULE DAY 31\", Blank Schedule Type Limits Name input -- will not be validated.\n   ** Warning ** ProcessScheduleInput: Schedule:Day:Interval=\"SCHEDULE DAY 32\", Blank Schedule Type Limits Name input -- will not be validated.\n   ** Warning ** ProcessScheduleInput: Schedule:Day:Interval=\"SCHEDULE DAY 33\", Blank Schedule Type Limits Name input -- will not be validated.\n   ** Warning ** ProcessScheduleInput: Schedule:Day:Interval=\"SCHEDULE DAY 34\", Blank Schedule Type Limits Name input -- will not be validated.\n   ** Warning ** ProcessScheduleInput: Schedule:Day:Interval=\"SCHEDULE DAY 35\", Blank Schedule Type Limits Name input -- will not be validated.\n   ** Warning ** ProcessScheduleInput: Schedule:Day:Interval=\"SCHEDULE DAY 36\", Blank Schedule Type Limits Name input -- will not be validated.\n   ** Warning ** ProcessScheduleInput: Schedule:Day:Interval=\"SCHEDULE DAY 37\", Blank Schedule Type Limits Name input -- will not be validated.\n   ** Warning ** ProcessScheduleInput: Schedule:Day:Interval=\"SCHEDULE DAY 38\", Blank Schedule Type Limits Name input -- will not be validated.\n   ** Warning ** ProcessScheduleInput: Schedule:Day:Interval=\"SCHEDULE DAY 39\", Blank Schedule Type Limits Name input -- will not be validated.\n   ** Warning ** ProcessScheduleInput: Schedule:Day:Interval=\"SCHEDULE DAY 40\", Blank Schedule Type Limits Name input -- will not be validated.\n   ** Warning ** ProcessScheduleInput: Schedule:Day:Interval=\"SCHEDULE DAY 41\", Blank Schedule Type Limits Name input -- will not be validated.\n   ** Warning ** ProcessScheduleInput: Schedule:Day:Interval=\"SCHEDULE DAY 42\", Blank Schedule Type Limits Name input -- will not be validated.\n   ** Warning ** ProcessScheduleInput: Schedule:Day:Interval=\"SCHEDULE DAY 43\", Blank Schedule Type Limits Name input -- will not be validated.\n   ** Warning ** ProcessScheduleInput: Schedule:Day:Interval=\"SCHEDULE DAY 44\", Blank Schedule Type Limits Name input -- will not be validated.\n   ** Warning ** ProcessScheduleInput: Schedule:Day:Interval=\"SCHEDULE DAY 45\", Blank Schedule Type Limits Name input -- will not be validated.\n   ** Warning ** ProcessScheduleInput: Schedule:Day:Interval=\"SCHEDULE DAY 46\", Blank Schedule Type Limits Name input -- will not be validated.\n   ** Warning ** ProcessScheduleInput: Schedule:Day:Interval=\"SCHEDULE DAY 47\", Blank Schedule Type Limits Name input -- will not be validated.\n   ** Warning ** ProcessScheduleInput: Schedule:Day:Interval=\"SCHEDULE DAY 48\", Blank Schedule Type Limits Name input -- will not be validated.\n   ** Warning ** ProcessScheduleInput: Schedule:Day:Interval=\"SCHEDULE DAY 49\", Blank Schedule Type Limits Name input -- will not be validated.\n   ** Warning ** ProcessScheduleInput: Schedule:Day:Interval=\"SCHEDULE DAY 50\", Blank Schedule Type Limits Name input -- will not be validated.\n   ** Warning ** ProcessScheduleInput: Schedule:Day:Interval=\"SCHEDULE DAY 51\", Blank Schedule Type Limits Name input -- will not be validated.\n   ** Warning ** ProcessScheduleInput: Schedule:Day:Interval=\"SCHEDULE DAY 52\", Blank Schedule Type Limits Name input -- will not be validated.\n   ** Warning ** ProcessScheduleInput: Schedule:Day:Interval=\"SCHEDULE DAY 53\", Blank Schedule Type Limits Name input -- will not be validated.\n   ** Warning ** ProcessScheduleInput: Schedule:Day:Interval=\"SCHEDULE DAY 54\", Blank Schedule Type Limits Name input -- will not be validated.\n   ** Warning ** ProcessScheduleInput: Schedule:Day:Interval=\"SCHEDULE DAY 55\", Blank Schedule Type Limits Name input -- will not be validated.\n   ** Warning ** ProcessScheduleInput: Schedule:Day:Interval=\"SCHEDULE DAY 56\", Blank Schedule Type Limits Name input -- will not be validated.\n   ** Warning ** ProcessScheduleInput: Schedule:Day:Interval=\"SCHEDULE DAY 57\", Blank Schedule Type Limits Name input -- will not be validated.\n   ** Warning ** ProcessScheduleInput: Schedule:Day:Interval=\"SCHEDULE DAY 7\", Blank Schedule Type Limits Name input -- will not be validated.\n   ** Warning ** ProcessScheduleInput: Schedule:Day:Interval=\"SCHEDULE DAY 8\", Blank Schedule Type Limits Name input -- will not be validated.\n   ** Warning ** ProcessScheduleInput: Schedule:Day:Interval=\"SCHEDULE DAY 9\", Blank Schedule Type Limits Name input -- will not be validated.\n   ** Warning ** ProcessScheduleInput: Schedule:Year=\"ECONOMIZER MAX OA FRACTION 100 PCT\", Blank Schedule Type Limits Name input -- will not be validated.\n   ** Warning ** ProcessScheduleInput: Schedule:Year=\"SCHEDULE RULESET 10\", Blank Schedule Type Limits Name input -- will not be validated.\n   ** Warning ** ProcessScheduleInput: Schedule:Year=\"SCHEDULE RULESET 11\", Blank Schedule Type Limits Name input -- will not be validated.\n   ** Warning ** ProcessScheduleInput: Schedule:Year=\"SCHEDULE RULESET 12\", Blank Schedule Type Limits Name input -- will not be validated.\n   ** Warning ** ProcessScheduleInput: Schedule:Year=\"SCHEDULE RULESET 13\", Blank Schedule Type Limits Name input -- will not be validated.\n   ** Warning ** ProcessScheduleInput: Schedule:Year=\"SCHEDULE RULESET 14\", Blank Schedule Type Limits Name input -- will not be validated.\n   ** Warning ** ProcessScheduleInput: Schedule:Year=\"SCHEDULE RULESET 15\", Blank Schedule Type Limits Name input -- will not be validated.\n   ** Warning ** ProcessScheduleInput: Schedule:Year=\"SCHEDULE RULESET 16\", Blank Schedule Type Limits Name input -- will not be validated.\n   ** Warning ** ProcessScheduleInput: Schedule:Year=\"SCHEDULE RULESET 17\", Blank Schedule Type Limits Name input -- will not be validated.\n   ** Warning ** ProcessScheduleInput: Schedule:Year=\"SCHEDULE RULESET 18\", Blank Schedule Type Limits Name input -- will not be validated.\n   ** Warning ** ProcessScheduleInput: Schedule:Year=\"SCHEDULE RULESET 19\", Blank Schedule Type Limits Name input -- will not be validated.\n   ** Warning ** ProcessScheduleInput: Schedule:Year=\"SCHEDULE RULESET 20\", Blank Schedule Type Limits Name input -- will not be validated.\n   ** Warning ** ProcessScheduleInput: Schedule:Year=\"SCHEDULE RULESET 21\", Blank Schedule Type Limits Name input -- will not be validated.\n   ** Warning ** ProcessScheduleInput: Schedule:Year=\"SCHEDULE RULESET 22\", Blank Schedule Type Limits Name input -- will not be validated.\n   ** Warning ** ProcessScheduleInput: Schedule:Year=\"SCHEDULE RULESET 23\", Blank Schedule Type Limits Name input -- will not be validated.\n   ** Warning ** ProcessScheduleInput: Schedule:Year=\"SCHEDULE RULESET 24\", Blank Schedule Type Limits Name input -- will not be validated.\n   ** Warning ** ProcessScheduleInput: Schedule:Year=\"SCHEDULE RULESET 25\", Blank Schedule Type Limits Name input -- will not be validated.\n   ** Warning ** ProcessScheduleInput: Schedule:Year=\"SCHEDULE RULESET 26\", Blank Schedule Type Limits Name input -- will not be validated.\n   ** Warning ** ProcessScheduleInput: Schedule:Year=\"SCHEDULE RULESET 27\", Blank Schedule Type Limits Name input -- will not be validated.\n   ** Warning ** ProcessScheduleInput: Schedule:Year=\"SCHEDULE RULESET 28\", Blank Schedule Type Limits Name input -- will not be validated.\n   ** Warning ** ProcessScheduleInput: Schedule:Year=\"SCHEDULE RULESET 29\", Blank Schedule Type Limits Name input -- will not be validated.\n   ** Warning ** ProcessScheduleInput: Schedule:Year=\"SCHEDULE RULESET 3\", Blank Schedule Type Limits Name input -- will not be validated.\n   ** Warning ** ProcessScheduleInput: Schedule:Year=\"SCHEDULE RULESET 30\", Blank Schedule Type Limits Name input -- will not be validated.\n   ** Warning ** ProcessScheduleInput: Schedule:Year=\"SCHEDULE RULESET 31\", Blank Schedule Type Limits Name input -- will not be validated.\n   ** Warning ** ProcessScheduleInput: Schedule:Year=\"SCHEDULE RULESET 32\", Blank Schedule Type Limits Name input -- will not be validated.\n   ** Warning ** ProcessScheduleInput: Schedule:Year=\"SCHEDULE RULESET 33\", Blank Schedule Type Limits Name input -- will not be validated.\n   ** Warning ** ProcessScheduleInput: Schedule:Year=\"SCHEDULE RULESET 34\", Blank Schedule Type Limits Name input -- will not be validated.\n   ** Warning ** ProcessScheduleInput: Schedule:Year=\"SCHEDULE RULESET 35\", Blank Schedule Type Limits Name input -- will not be validated.\n   ** Warning ** ProcessScheduleInput: Schedule:Year=\"SCHEDULE RULESET 36\", Blank Schedule Type Limits Name input -- will not be validated.\n   ** Warning ** ProcessScheduleInput: Schedule:Year=\"SCHEDULE RULESET 37\", Blank Schedule Type Limits Name input -- will not be validated.\n   ** Warning ** ProcessScheduleInput: Schedule:Year=\"SCHEDULE RULESET 38\", Blank Schedule Type Limits Name input -- will not be validated.\n   ** Warning ** ProcessScheduleInput: Schedule:Year=\"SCHEDULE RULESET 39\", Blank Schedule Type Limits Name input -- will not be validated.\n   ** Warning ** ProcessScheduleInput: Schedule:Year=\"SCHEDULE RULESET 4\", Blank Schedule Type Limits Name input -- will not be validated.\n   ** Warning ** ProcessScheduleInput: Schedule:Year=\"SCHEDULE RULESET 40\", Blank Schedule Type Limits Name input -- will not be validated.\n   ** Warning ** ProcessScheduleInput: Schedule:Year=\"SCHEDULE RULESET 41\", Blank Schedule Type Limits Name input -- will not be validated.\n   ** Warning ** ProcessScheduleInput: Schedule:Year=\"SCHEDULE RULESET 42\", Blank Schedule Type Limits Name input -- will not be validated.\n   ** Warning ** ProcessScheduleInput: Schedule:Year=\"SCHEDULE RULESET 43\", Blank Schedule Type Limits Name input -- will not be validated.\n   ** Warning ** ProcessScheduleInput: Schedule:Year=\"SCHEDULE RULESET 44\", Blank Schedule Type Limits Name input -- will not be validated.\n   ** Warning ** ProcessScheduleInput: Schedule:Year=\"SCHEDULE RULESET 45\", Blank Schedule Type Limits Name input -- will not be validated.\n   ** Warning ** ProcessScheduleInput: Schedule:Year=\"SCHEDULE RULESET 46\", Blank Schedule Type Limits Name input -- will not be validated.\n   ** Warning ** ProcessScheduleInput: Schedule:Year=\"SCHEDULE RULESET 47\", Blank Schedule Type Limits Name input -- will not be validated.\n   ** Warning ** ProcessScheduleInput: Schedule:Year=\"SCHEDULE RULESET 5\", Blank Schedule Type Limits Name input -- will not be validated.\n   ** Warning ** ProcessScheduleInput: Schedule:Year=\"SCHEDULE RULESET 6\", Blank Schedule Type Limits Name input -- will not be validated.\n   ** Warning ** ProcessScheduleInput: Schedule:Year=\"SCHEDULE RULESET 7\", Blank Schedule Type Limits Name input -- will not be validated.\n   ** Warning ** ProcessScheduleInput: Schedule:Year=\"SCHEDULE RULESET 8\", Blank Schedule Type Limits Name input -- will not be validated.\n   ** Warning ** ProcessScheduleInput: Schedule:Year=\"SCHEDULE RULESET 9\", Blank Schedule Type Limits Name input -- will not be validated.\n   ** Warning ** ProcessScheduleInput: Schedule:Constant=\"ALWAYS OFF DISCRETE\", Blank Schedule Type Limits Name input -- will not be validated.\n   ** Warning ** ProcessScheduleInput: Schedule:Constant=\"ALWAYS ON CONTINUOUS\", Blank Schedule Type Limits Name input -- will not be validated.\n   ** Warning ** CheckUsedConstructions: There are 29 nominally unused constructions in input.\n   **   ~~~   ** For explicit details on each unused construction, use Output:Diagnostics,DisplayExtraWarnings;\n   ** Warning ** GetInternalHeatGains: People=\"SPACE FUNCTION OFFICE OPEN PLAN PEOPLE\" has comfort related schedules but no thermal comfort model selected.\n   **   ~~~   ** If schedules are specified for air velocity, clothing insulation, and/or work efficiency but no thermal comfort\n   **   ~~~   ** thermal comfort model is selected, the schedules will be listed as unused schedules in the .err file.\n   **   ~~~   ** To avoid these errors, select a valid thermal comfort model or eliminate these schedules in the PEOPLE input.\n   ** Warning ** GetInternalHeatGains: People=\"SPACE FUNCTION OFFICE OPEN PLAN PEOPLE\" has comfort related schedules but no thermal comfort model selected.\n   **   ~~~   ** If schedules are specified for air velocity, clothing insulation, and/or work efficiency but no thermal comfort\n   **   ~~~   ** thermal comfort model is selected, the schedules will be listed as unused schedules in the .err file.\n   **   ~~~   ** To avoid these errors, select a valid thermal comfort model or eliminate these schedules in the PEOPLE input.\n   ** Warning ** GetInternalHeatGains: People=\"SPACE FUNCTION OFFICE OPEN PLAN PEOPLE\" has comfort related schedules but no thermal comfort model selected.\n   **   ~~~   ** If schedules are specified for air velocity, clothing insulation, and/or work efficiency but no thermal comfort\n   **   ~~~   ** thermal comfort model is selected, the schedules will be listed as unused schedules in the .err file.\n   **   ~~~   ** To avoid these errors, select a valid thermal comfort model or eliminate these schedules in the PEOPLE input.\n   ** Warning ** GetInternalHeatGains: People=\"SPACE FUNCTION OFFICE OPEN PLAN PEOPLE\" has comfort related schedules but no thermal comfort model selected.\n   **   ~~~   ** If schedules are specified for air velocity, clothing insulation, and/or work efficiency but no thermal comfort\n   **   ~~~   ** thermal comfort model is selected, the schedules will be listed as unused schedules in the .err file.\n   **   ~~~   ** To avoid these errors, select a valid thermal comfort model or eliminate these schedules in the PEOPLE input.\n   ** Warning ** GetInternalHeatGains: People=\"SPACE FUNCTION OFFICE OPEN PLAN PEOPLE\" has comfort related schedules but no thermal comfort model selected.\n   **   ~~~   ** If schedules are specified for air velocity, clothing insulation, and/or work efficiency but no thermal comfort\n   **   ~~~   ** thermal comfort model is selected, the schedules will be listed as unused schedules in the .err file.\n   **   ~~~   ** To avoid these errors, select a valid thermal comfort model or eliminate these schedules in the PEOPLE input.\n   ** Warning ** GetInternalHeatGains: People=\"SPACE FUNCTION OFFICE OPEN PLAN PEOPLE\" has comfort related schedules but no thermal comfort model selected.\n   **   ~~~   ** If schedules are specified for air velocity, clothing insulation, and/or work efficiency but no thermal comfort\n   **   ~~~   ** thermal comfort model is selected, the schedules will be listed as unused schedules in the .err file.\n   **   ~~~   ** To avoid these errors, select a valid thermal comfort model or eliminate these schedules in the PEOPLE input.\n   ** Warning ** GetInternalHeatGains: People=\"SPACE FUNCTION OFFICE OPEN PLAN PEOPLE\" has comfort related schedules but no thermal comfort model selected.\n   **   ~~~   ** If schedules are specified for air velocity, clothing insulation, and/or work efficiency but no thermal comfort\n   **   ~~~   ** thermal comfort model is selected, the schedules will be listed as unused schedules in the .err file.\n   **   ~~~   ** To avoid these errors, select a valid thermal comfort model or eliminate these schedules in the PEOPLE input.\n   ** Warning ** GetInternalHeatGains: People=\"SPACE FUNCTION OFFICE OPEN PLAN PEOPLE\" has comfort related schedules but no thermal comfort model selected.\n   **   ~~~   ** If schedules are specified for air velocity, clothing insulation, and/or work efficiency but no thermal comfort\n   **   ~~~   ** thermal comfort model is selected, the schedules will be listed as unused schedules in the .err file.\n   **   ~~~   ** To avoid these errors, select a valid thermal comfort model or eliminate these schedules in the PEOPLE input.\n   ** Warning ** GetInternalHeatGains: People=\"SPACE FUNCTION OFFICE OPEN PLAN PEOPLE\" has comfort related schedules but no thermal comfort model selected.\n   **   ~~~   ** If schedules are specified for air velocity, clothing insulation, and/or work efficiency but no thermal comfort\n   **   ~~~   ** thermal comfort model is selected, the schedules will be listed as unused schedules in the .err file.\n   **   ~~~   ** To avoid these errors, select a valid thermal comfort model or eliminate these schedules in the PEOPLE input.\n   ** Warning ** GetInternalHeatGains: People=\"SPACE FUNCTION OFFICE OPEN PLAN PEOPLE\" has comfort related schedules but no thermal comfort model selected.\n   **   ~~~   ** If schedules are specified for air velocity, clothing insulation, and/or work efficiency but no thermal comfort\n   **   ~~~   ** thermal comfort model is selected, the schedules will be listed as unused schedules in the .err file.\n   **   ~~~   ** To avoid these errors, select a valid thermal comfort model or eliminate these schedules in the PEOPLE input.\n   ** Warning ** GetInternalHeatGains: People=\"SPACE FUNCTION OFFICE OPEN PLAN PEOPLE\" has comfort related schedules but no thermal comfort model selected.\n   **   ~~~   ** If schedules are specified for air velocity, clothing insulation, and/or work efficiency but no thermal comfort\n   **   ~~~   ** thermal comfort model is selected, the schedules will be listed as unused schedules in the .err file.\n   **   ~~~   ** To avoid these errors, select a valid thermal comfort model or eliminate these schedules in the PEOPLE input.\n   ** Warning ** GetInternalHeatGains: People=\"SPACE FUNCTION OFFICE OPEN PLAN PEOPLE\" has comfort related schedules but no thermal comfort model selected.\n   **   ~~~   ** If schedules are specified for air velocity, clothing insulation, and/or work efficiency but no thermal comfort\n   **   ~~~   ** thermal comfort model is selected, the schedules will be listed as unused schedules in the .err file.\n   **   ~~~   ** To avoid these errors, select a valid thermal comfort model or eliminate these schedules in the PEOPLE input.\n   ** Warning ** GetInternalHeatGains: People=\"SPACE FUNCTION OFFICE OPEN PLAN PEOPLE\" has comfort related schedules but no thermal comfort model selected.\n   **   ~~~   ** If schedules are specified for air velocity, clothing insulation, and/or work efficiency but no thermal comfort\n   **   ~~~   ** thermal comfort model is selected, the schedules will be listed as unused schedules in the .err file.\n   **   ~~~   ** To avoid these errors, select a valid thermal comfort model or eliminate these schedules in the PEOPLE input.\n   ** Warning ** GetInternalHeatGains: People=\"SPACE FUNCTION OFFICE OPEN PLAN PEOPLE\" has comfort related schedules but no thermal comfort model selected.\n   **   ~~~   ** If schedules are specified for air velocity, clothing insulation, and/or work efficiency but no thermal comfort\n   **   ~~~   ** thermal comfort model is selected, the schedules will be listed as unused schedules in the .err file.\n   **   ~~~   ** To avoid these errors, select a valid thermal comfort model or eliminate these schedules in the PEOPLE input.\n   ** Warning ** GetInternalHeatGains: People=\"SPACE FUNCTION OFFICE OPEN PLAN PEOPLE\" has comfort related schedules but no thermal comfort model selected.\n   **   ~~~   ** If schedules are specified for air velocity, clothing insulation, and/or work efficiency but no thermal comfort\n   **   ~~~   ** thermal comfort model is selected, the schedules will be listed as unused schedules in the .err file.\n   **   ~~~   ** To avoid these errors, select a valid thermal comfort model or eliminate these schedules in the PEOPLE input.\n   ************* Beginning System Sizing Calculations\n   ** Warning ** Since Zone Minimum Air Flow Input Method = CONSTANT, input for Fixed Minimum Air Flow Rate will be ignored.\n   **   ~~~   ** Occurs in AirTerminal:SingleDuct:VAV:Reheat = AIR TERMINAL SINGLE DUCT VAV REHEAT 3\n   ** Warning ** Since Damper Heating Action = NORMAL, input for Maximum Flow Fraction During Reheat will be ignored.\n   **   ~~~   ** Occurs in AirTerminal:SingleDuct:VAV:Reheat = AIR TERMINAL SINGLE DUCT VAV REHEAT 3\n   ** Warning ** Since Zone Minimum Air Flow Input Method = CONSTANT, input for Fixed Minimum Air Flow Rate will be ignored.\n   **   ~~~   ** Occurs in AirTerminal:SingleDuct:VAV:Reheat = AIR TERMINAL SINGLE DUCT VAV REHEAT 1\n   ** Warning ** Since Damper Heating Action = NORMAL, input for Maximum Flow Fraction During Reheat will be ignored.\n   **   ~~~   ** Occurs in AirTerminal:SingleDuct:VAV:Reheat = AIR TERMINAL SINGLE DUCT VAV REHEAT 1\n   ** Warning ** Since Zone Minimum Air Flow Input Method = CONSTANT, input for Fixed Minimum Air Flow Rate will be ignored.\n   **   ~~~   ** Occurs in AirTerminal:SingleDuct:VAV:Reheat = AIR TERMINAL SINGLE DUCT VAV REHEAT 5\n   ** Warning ** Since Damper Heating Action = NORMAL, input for Maximum Flow Fraction During Reheat will be ignored.\n   **   ~~~   ** Occurs in AirTerminal:SingleDuct:VAV:Reheat = AIR TERMINAL SINGLE DUCT VAV REHEAT 5\n   ** Warning ** Since Zone Minimum Air Flow Input Method = CONSTANT, input for Fixed Minimum Air Flow Rate will be ignored.\n   **   ~~~   ** Occurs in AirTerminal:SingleDuct:VAV:Reheat = AIR TERMINAL SINGLE DUCT VAV REHEAT 2\n   ** Warning ** Since Damper Heating Action = NORMAL, input for Maximum Flow Fraction During Reheat will be ignored.\n   **   ~~~   ** Occurs in AirTerminal:SingleDuct:VAV:Reheat = AIR TERMINAL SINGLE DUCT VAV REHEAT 2\n   ** Warning ** Since Zone Minimum Air Flow Input Method = CONSTANT, input for Fixed Minimum Air Flow Rate will be ignored.\n   **   ~~~   ** Occurs in AirTerminal:SingleDuct:VAV:Reheat = AIR TERMINAL SINGLE DUCT VAV REHEAT 4\n   ** Warning ** Since Damper Heating Action = NORMAL, input for Maximum Flow Fraction During Reheat will be ignored.\n   **   ~~~   ** Occurs in AirTerminal:SingleDuct:VAV:Reheat = AIR TERMINAL SINGLE DUCT VAV REHEAT 4\n   ** Warning ** Since Zone Minimum Air Flow Input Method = CONSTANT, input for Fixed Minimum Air Flow Rate will be ignored.\n   **   ~~~   ** Occurs in AirTerminal:SingleDuct:VAV:Reheat = AIR TERMINAL SINGLE DUCT VAV REHEAT 9\n   ** Warning ** Since Damper Heating Action = NORMAL, input for Maximum Flow Fraction During Reheat will be ignored.\n   **   ~~~   ** Occurs in AirTerminal:SingleDuct:VAV:Reheat = AIR TERMINAL SINGLE DUCT VAV REHEAT 9\n   ** Warning ** Since Zone Minimum Air Flow Input Method = CONSTANT, input for Fixed Minimum Air Flow Rate will be ignored.\n   **   ~~~   ** Occurs in AirTerminal:SingleDuct:VAV:Reheat = AIR TERMINAL SINGLE DUCT VAV REHEAT 6\n   ** Warning ** Since Damper Heating Action = NORMAL, input for Maximum Flow Fraction During Reheat will be ignored.\n   **   ~~~   ** Occurs in AirTerminal:SingleDuct:VAV:Reheat = AIR TERMINAL SINGLE DUCT VAV REHEAT 6\n   ** Warning ** Since Zone Minimum Air Flow Input Method = CONSTANT, input for Fixed Minimum Air Flow Rate will be ignored.\n   **   ~~~   ** Occurs in AirTerminal:SingleDuct:VAV:Reheat = AIR TERMINAL SINGLE DUCT VAV REHEAT 10\n   ** Warning ** Since Damper Heating Action = NORMAL, input for Maximum Flow Fraction During Reheat will be ignored.\n   **   ~~~   ** Occurs in AirTerminal:SingleDuct:VAV:Reheat = AIR TERMINAL SINGLE DUCT VAV REHEAT 10\n   ** Warning ** Since Zone Minimum Air Flow Input Method = CONSTANT, input for Fixed Minimum Air Flow Rate will be ignored.\n   **   ~~~   ** Occurs in AirTerminal:SingleDuct:VAV:Reheat = AIR TERMINAL SINGLE DUCT VAV REHEAT 7\n   ** Warning ** Since Damper Heating Action = NORMAL, input for Maximum Flow Fraction During Reheat will be ignored.\n   **   ~~~   ** Occurs in AirTerminal:SingleDuct:VAV:Reheat = AIR TERMINAL SINGLE DUCT VAV REHEAT 7\n   ** Warning ** Since Zone Minimum Air Flow Input Method = CONSTANT, input for Fixed Minimum Air Flow Rate will be ignored.\n   **   ~~~   ** Occurs in AirTerminal:SingleDuct:VAV:Reheat = AIR TERMINAL SINGLE DUCT VAV REHEAT 8\n   ** Warning ** Since Damper Heating Action = NORMAL, input for Maximum Flow Fraction During Reheat will be ignored.\n   **   ~~~   ** Occurs in AirTerminal:SingleDuct:VAV:Reheat = AIR TERMINAL SINGLE DUCT VAV REHEAT 8\n   ** Warning ** Since Zone Minimum Air Flow Input Method = CONSTANT, input for Fixed Minimum Air Flow Rate will be ignored.\n   **   ~~~   ** Occurs in AirTerminal:SingleDuct:VAV:Reheat = AIR TERMINAL SINGLE DUCT VAV REHEAT 14\n   ** Warning ** Since Damper Heating Action = NORMAL, input for Maximum Flow Fraction During Reheat will be ignored.\n   **   ~~~   ** Occurs in AirTerminal:SingleDuct:VAV:Reheat = AIR TERMINAL SINGLE DUCT VAV REHEAT 14\n   ** Warning ** Since Zone Minimum Air Flow Input Method = CONSTANT, input for Fixed Minimum Air Flow Rate will be ignored.\n   **   ~~~   ** Occurs in AirTerminal:SingleDuct:VAV:Reheat = AIR TERMINAL SINGLE DUCT VAV REHEAT 12\n   ** Warning ** Since Damper Heating Action = NORMAL, input for Maximum Flow Fraction During Reheat will be ignored.\n   **   ~~~   ** Occurs in AirTerminal:SingleDuct:VAV:Reheat = AIR TERMINAL SINGLE DUCT VAV REHEAT 12\n   ** Warning ** Since Zone Minimum Air Flow Input Method = CONSTANT, input for Fixed Minimum Air Flow Rate will be ignored.\n   **   ~~~   ** Occurs in AirTerminal:SingleDuct:VAV:Reheat = AIR TERMINAL SINGLE DUCT VAV REHEAT 15\n   ** Warning ** Since Damper Heating Action = NORMAL, input for Maximum Flow Fraction During Reheat will be ignored.\n   **   ~~~   ** Occurs in AirTerminal:SingleDuct:VAV:Reheat = AIR TERMINAL SINGLE DUCT VAV REHEAT 15\n   ** Warning ** Since Zone Minimum Air Flow Input Method = CONSTANT, input for Fixed Minimum Air Flow Rate will be ignored.\n   **   ~~~   ** Occurs in AirTerminal:SingleDuct:VAV:Reheat = AIR TERMINAL SINGLE DUCT VAV REHEAT 11\n   ** Warning ** Since Damper Heating Action = NORMAL, input for Maximum Flow Fraction During Reheat will be ignored.\n   **   ~~~   ** Occurs in AirTerminal:SingleDuct:VAV:Reheat = AIR TERMINAL SINGLE DUCT VAV REHEAT 11\n   ** Warning ** Since Zone Minimum Air Flow Input Method = CONSTANT, input for Fixed Minimum Air Flow Rate will be ignored.\n   **   ~~~   ** Occurs in AirTerminal:SingleDuct:VAV:Reheat = AIR TERMINAL SINGLE DUCT VAV REHEAT 13\n   ** Warning ** Since Damper Heating Action = NORMAL, input for Maximum Flow Fraction During Reheat will be ignored.\n   **   ~~~   ** Occurs in AirTerminal:SingleDuct:VAV:Reheat = AIR TERMINAL SINGLE DUCT VAV REHEAT 13\n   ************* Beginning Plant Sizing Calculations\n   ** Warning ** GetOAControllerInputs: Controller:MechanicalVentilation=\"CONTROLLER MECHANICAL VENTILATION 1\n   **   ~~~   ** Cannot locate a matching DesignSpecification:ZoneAirDistribution object for Zone=\"ALL_ST=OFFICE OPEN PLAN_FL=BUILDING STORY 1_SCH=A\".\n   **   ~~~   ** Using default zone air distribution effectiveness of 1.0 for heating and cooling.\n   ** Warning ** GetOAControllerInputs: Controller:MechanicalVentilation=\"CONTROLLER MECHANICAL VENTILATION 1\n   **   ~~~   ** Cannot locate a matching DesignSpecification:ZoneAirDistribution object for Zone=\"ALL_ST=OFFICE OPEN PLAN_FL=BUILDING STORY 1_SCH=A 1\".\n   **   ~~~   ** Using default zone air distribution effectiveness of 1.0 for heating and cooling.\n   ** Warning ** GetOAControllerInputs: Controller:MechanicalVentilation=\"CONTROLLER MECHANICAL VENTILATION 1\n   **   ~~~   ** Cannot locate a matching DesignSpecification:ZoneAirDistribution object for Zone=\"ALL_ST=OFFICE OPEN PLAN_FL=BUILDING STORY 1_SCH=A 2\".\n   **   ~~~   ** Using default zone air distribution effectiveness of 1.0 for heating and cooling.\n   ** Warning ** GetOAControllerInputs: Controller:MechanicalVentilation=\"CONTROLLER MECHANICAL VENTILATION 1\n   **   ~~~   ** Cannot locate a matching DesignSpecification:ZoneAirDistribution object for Zone=\"ALL_ST=OFFICE OPEN PLAN_FL=BUILDING STORY 1_SCH=A 3\".\n   **   ~~~   ** Using default zone air distribution effectiveness of 1.0 for heating and cooling.\n   ** Warning ** GetOAControllerInputs: Controller:MechanicalVentilation=\"CONTROLLER MECHANICAL VENTILATION 1\n   **   ~~~   ** Cannot locate a matching DesignSpecification:ZoneAirDistribution object for Zone=\"ALL_ST=OFFICE OPEN PLAN_FL=BUILDING STORY 1_SCH=A 4\".\n   **   ~~~   ** Using default zone air distribution effectiveness of 1.0 for heating and cooling.\n   ** Warning ** GetOAControllerInputs: Controller:MechanicalVentilation=\"CONTROLLER MECHANICAL VENTILATION 2\n   **   ~~~   ** Cannot locate a matching DesignSpecification:ZoneAirDistribution object for Zone=\"ALL_ST=OFFICE OPEN PLAN_FL=BUILDING STORY 2_SCH=A\".\n   **   ~~~   ** Using default zone air distribution effectiveness of 1.0 for heating and cooling.\n   ** Warning ** GetOAControllerInputs: Controller:MechanicalVentilation=\"CONTROLLER MECHANICAL VENTILATION 2\n   **   ~~~   ** Cannot locate a matching DesignSpecification:ZoneAirDistribution object for Zone=\"ALL_ST=OFFICE OPEN PLAN_FL=BUILDING STORY 2_SCH=A 1\".\n   **   ~~~   ** Using default zone air distribution effectiveness of 1.0 for heating and cooling.\n   ** Warning ** GetOAControllerInputs: Controller:MechanicalVentilation=\"CONTROLLER MECHANICAL VENTILATION 2\n   **   ~~~   ** Cannot locate a matching DesignSpecification:ZoneAirDistribution object for Zone=\"ALL_ST=OFFICE OPEN PLAN_FL=BUILDING STORY 2_SCH=A 2\".\n   **   ~~~   ** Using default zone air distribution effectiveness of 1.0 for heating and cooling.\n   ** Warning ** GetOAControllerInputs: Controller:MechanicalVentilation=\"CONTROLLER MECHANICAL VENTILATION 2\n   **   ~~~   ** Cannot locate a matching DesignSpecification:ZoneAirDistribution object for Zone=\"ALL_ST=OFFICE OPEN PLAN_FL=BUILDING STORY 2_SCH=A 3\".\n   **   ~~~   ** Using default zone air distribution effectiveness of 1.0 for heating and cooling.\n   ** Warning ** GetOAControllerInputs: Controller:MechanicalVentilation=\"CONTROLLER MECHANICAL VENTILATION 2\n   **   ~~~   ** Cannot locate a matching DesignSpecification:ZoneAirDistribution object for Zone=\"ALL_ST=OFFICE OPEN PLAN_FL=BUILDING STORY 2_SCH=A 4\".\n   **   ~~~   ** Using default zone air distribution effectiveness of 1.0 for heating and cooling.\n   ** Warning ** GetOAControllerInputs: Controller:MechanicalVentilation=\"CONTROLLER MECHANICAL VENTILATION 3\n   **   ~~~   ** Cannot locate a matching DesignSpecification:ZoneAirDistribution object for Zone=\"ALL_ST=OFFICE OPEN PLAN_FL=BUILDING STORY 3_SCH=A\".\n   **   ~~~   ** Using default zone air distribution effectiveness of 1.0 for heating and cooling.\n   ** Warning ** GetOAControllerInputs: Controller:MechanicalVentilation=\"CONTROLLER MECHANICAL VENTILATION 3\n   **   ~~~   ** Cannot locate a matching DesignSpecification:ZoneAirDistribution object for Zone=\"ALL_ST=OFFICE OPEN PLAN_FL=BUILDING STORY 3_SCH=A 1\".\n   **   ~~~   ** Using default zone air distribution effectiveness of 1.0 for heating and cooling.\n   ** Warning ** GetOAControllerInputs: Controller:MechanicalVentilation=\"CONTROLLER MECHANICAL VENTILATION 3\n   **   ~~~   ** Cannot locate a matching DesignSpecification:ZoneAirDistribution object for Zone=\"ALL_ST=OFFICE OPEN PLAN_FL=BUILDING STORY 3_SCH=A 2\".\n   **   ~~~   ** Using default zone air distribution effectiveness of 1.0 for heating and cooling.\n   ** Warning ** GetOAControllerInputs: Controller:MechanicalVentilation=\"CONTROLLER MECHANICAL VENTILATION 3\n   **   ~~~   ** Cannot locate a matching DesignSpecification:ZoneAirDistribution object for Zone=\"ALL_ST=OFFICE OPEN PLAN_FL=BUILDING STORY 3_SCH=A 3\".\n   **   ~~~   ** Using default zone air distribution effectiveness of 1.0 for heating and cooling.\n   ** Warning ** GetOAControllerInputs: Controller:MechanicalVentilation=\"CONTROLLER MECHANICAL VENTILATION 3\n   **   ~~~   ** Cannot locate a matching DesignSpecification:ZoneAirDistribution object for Zone=\"ALL_ST=OFFICE OPEN PLAN_FL=BUILDING STORY 3_SCH=A 4\".\n   **   ~~~   ** Using default zone air distribution effectiveness of 1.0 for heating and cooling.\n   ** Warning ** In calculating the design coil UA for Coil:Cooling:Water COIL COOLING WATER 1\n   **   ~~~   ** the coil bypass factor is unrealistically large;\n   **   ~~~   ** The initial design conditions are: Tair,in = 24.1330\n   **   ~~~   **                                    Wair,in = 8.829080E-003\n   **   ~~~   **                                    Twater,in = 7.0000\n   **   ~~~   **                                    Tair,out = 11.5182\n   **   ~~~   **                                    Wair,out = 8.500000E-003\n   ** Warning ** In calculating the design coil UA for Coil:Cooling:Water COIL COOLING WATER 2\n   **   ~~~   ** the coil bypass factor is unrealistically large;\n   **   ~~~   ** The initial design conditions are: Tair,in = 24.1469\n   **   ~~~   **                                    Wair,in = 8.826017E-003\n   **   ~~~   **                                    Twater,in = 7.0000\n   **   ~~~   **                                    Tair,out = 11.5182\n   **   ~~~   **                                    Wair,out = 8.500000E-003\n   ** Warning ** In calculating the design coil UA for Coil:Cooling:Water COIL COOLING WATER 3\n   **   ~~~   ** the coil bypass factor is unrealistically large;\n   **   ~~~   ** The initial design conditions are: Tair,in = 24.1408\n   **   ~~~   **                                    Wair,in = 8.815021E-003\n   **   ~~~   **                                    Twater,in = 7.0000\n   **   ~~~   **                                    Tair,out = 11.5181\n   **   ~~~   **                                    Wair,out = 8.500000E-003\n   ** Warning ** Missing temperature setpoint for LeavingSetpointModulated mode chiller named PRIMARY CHILLER WATERCOOLED SCROLL 75TONS 0.8KW/TON\n   **   ~~~   **   A temperature setpoint is needed at the outlet node of a chiller evaporator in variable flow mode\n   **   ~~~   **   use a Setpoint Manager to establish a setpoint at the chiller evaporator outlet node \n   **   ~~~   **   or use an EMS actuator to establish a setpoint at the outlet node \n   **   ~~~   **   The overall loop setpoint will be assumed for chiller. The simulation continues ... \n   ** Warning ** Missing temperature setpoint for LeavingSetpointModulated mode chiller named SECONDARY CHILLER WATERCOOLED SCROLL 0TONS 0.8KW/TON\n   **   ~~~   **   A temperature setpoint is needed at the outlet node of a chiller evaporator in variable flow mode\n   **   ~~~   **   use a Setpoint Manager to establish a setpoint at the chiller evaporator outlet node \n   **   ~~~   **   or use an EMS actuator to establish a setpoint at the outlet node \n   **   ~~~   **   The overall loop setpoint will be assumed for chiller. The simulation continues ... \n   ** Warning ** Error when autosizing the load for cooling tower = COOLING TOWER SINGLE SPEED 1. Tower Design Range Temperature is different from the Design Loop Delta Temperature.\n   **   ~~~   ** Tower Design Range Temperature specified in tower = COOLING TOWER SINGLE SPEED 1\n   **   ~~~   ** is inconsistent with Design Loop Delta Temperature specified in Sizing:Plant object = CONDENSER WATER LOOP.\n   **   ~~~   ** ..The Design Range Temperature specified in tower is = 5.00\n   **   ~~~   ** ..The Design Loop Delta Temperature specified in plant sizing data is = 6.00\n   ** Warning ** Error when autosizing the load for cooling tower = COOLING TOWER SINGLE SPEED 1. Tower Design Range Temperature is different from the Design Loop Delta Temperature.\n   **   ~~~   ** Tower Design Range Temperature specified in tower = COOLING TOWER SINGLE SPEED 1\n   **   ~~~   ** is inconsistent with Design Loop Delta Temperature specified in Sizing:Plant object = CONDENSER WATER LOOP.\n   **   ~~~   ** ..The Design Range Temperature specified in tower is = 5.00\n   **   ~~~   ** ..The Design Loop Delta Temperature specified in plant sizing data is = 6.00\n   ** Warning ** Error when autosizing the load for cooling tower = COOLING TOWER SINGLE SPEED 1. Tower Design Range Temperature is different from the Design Loop Delta Temperature.\n   **   ~~~   ** Tower Design Range Temperature specified in tower = COOLING TOWER SINGLE SPEED 1\n   **   ~~~   ** is inconsistent with Design Loop Delta Temperature specified in Sizing:Plant object = CONDENSER WATER LOOP.\n   **   ~~~   ** ..The Design Range Temperature specified in tower is = 5.00\n   **   ~~~   ** ..The Design Loop Delta Temperature specified in plant sizing data is = 6.00\n   ** Warning ** Error when autosizing the load for cooling tower = COOLING TOWER SINGLE SPEED 1. Tower Design Range Temperature is different from the Design Loop Delta Temperature.\n   **   ~~~   ** Tower Design Range Temperature specified in tower = COOLING TOWER SINGLE SPEED 1\n   **   ~~~   ** is inconsistent with Design Loop Delta Temperature specified in Sizing:Plant object = CONDENSER WATER LOOP.\n   **   ~~~   ** ..The Design Range Temperature specified in tower is = 5.00\n   **   ~~~   ** ..The Design Loop Delta Temperature specified in plant sizing data is = 6.00\n   ** Warning ** Error when autosizing the load for cooling tower = COOLING TOWER SINGLE SPEED 1. Tower Design Range Temperature is different from the Design Loop Delta Temperature.\n   **   ~~~   ** Tower Design Range Temperature specified in tower = COOLING TOWER SINGLE SPEED 1\n   **   ~~~   ** is inconsistent with Design Loop Delta Temperature specified in Sizing:Plant object = CONDENSER WATER LOOP.\n   **   ~~~   ** ..The Design Range Temperature specified in tower is = 5.00\n   **   ~~~   ** ..The Design Loop Delta Temperature specified in plant sizing data is = 6.00\n   ** Warning ** Error when autosizing the load for cooling tower = COOLING TOWER SINGLE SPEED 1. Tower Design Range Temperature is different from the Design Loop Delta Temperature.\n   **   ~~~   ** Tower Design Range Temperature specified in tower = COOLING TOWER SINGLE SPEED 1\n   **   ~~~   ** is inconsistent with Design Loop Delta Temperature specified in Sizing:Plant object = CONDENSER WATER LOOP.\n   **   ~~~   ** ..The Design Range Temperature specified in tower is = 5.00\n   **   ~~~   ** ..The Design Loop Delta Temperature specified in plant sizing data is = 6.00\n   ** Warning ** Output:Meter: invalid Key Name=\"NATURALGAS:FACILITY\" - not found.\n   ** Warning ** Output:Meter: invalid Key Name=\"NATURALGAS:FACILITY\" - not found.\n   ** Warning ** Output:Meter: invalid Key Name=\"GAS:FACILITY\" - not found.\n   ** Warning ** Output:Meter: invalid Key Name=\"DISTRICTCOOLING:FACILITY\" - not found.\n   ** Warning ** Output:Meter: invalid Key Name=\"DISTRICTHEATING:FACILITY\" - not found.\n   ** Warning ** Output:Meter:MeterFileOnly: invalid Key Name=\"GAS:FACILITY\" - not found.\n   ** Warning ** Output:Meter:MeterFileOnly requested for \"Electricity:Facility\" (TimeStep), already on \"Output:Meter\". Will report to both eplusout.eso and eplusout.mtr\n   ************* Testing Individual Branch Integrity\n   ************* All Branches passed integrity testing\n   ************* Testing Individual Supply Air Path Integrity\n   ************* All Supply Air Paths passed integrity testing\n   ************* Testing Individual Return Air Path Integrity\n   ************* All Return Air Paths passed integrity testing\n   ************* No node connection errors were found.\n   ************* Beginning Simulation\n   ** Warning ** Processing Monthly Tabular Reports: Variable names not valid for this simulation\n   **   ~~~   ** ...use Output:Diagnostics,DisplayExtraWarnings; to show more details on individual variables.\n   ** Warning ** The resource referenced by LifeCycleCost:UsePriceEscalation= \"U.S. AVG  COMMERCIAL-ELECTRICITY\" has no energy cost. \n   **   ~~~   ** ... It is likely that the wrong resource is used. The resource should match the meter used in Utility:Tariff.\n   ** Warning ** The resource referenced by LifeCycleCost:UsePriceEscalation= \"U.S. AVG  COMMERCIAL-DISTILLATE OIL\" has no energy cost. \n   **   ~~~   ** ... It is likely that the wrong resource is used. The resource should match the meter used in Utility:Tariff.\n   ** Warning ** The resource referenced by LifeCycleCost:UsePriceEscalation= \"U.S. AVG  COMMERCIAL-RESIDUAL OIL\" has no energy cost. \n   **   ~~~   ** ... It is likely that the wrong resource is used. The resource should match the meter used in Utility:Tariff.\n   ** Warning ** The resource referenced by LifeCycleCost:UsePriceEscalation= \"U.S. AVG  COMMERCIAL-NATURAL GAS\" has no energy cost. \n   **   ~~~   ** ... It is likely that the wrong resource is used. The resource should match the meter used in Utility:Tariff.\n   ** Warning ** The resource referenced by LifeCycleCost:UsePriceEscalation= \"U.S. AVG  COMMERCIAL-COAL\" has no energy cost. \n   **   ~~~   ** ... It is likely that the wrong resource is used. The resource should match the meter used in Utility:Tariff.\n   ************* Simulation Error Summary *************\n   ************* There are 9 unused schedules in input.\n   ************* There are 9 unused week schedules in input.\n   ************* There are 24 unused day schedules in input.\n   ************* Use Output:Diagnostics,DisplayUnusedSchedules; to see them.\n   *************\n   ************* ===== Final Error Summary =====\n   ************* The following error categories occurred.  Consider correcting or noting.\n   ************* Nominally Unused Constructions\n   ************* ..The nominally unused constructions warning is provided to alert you to potential conditions that can cause\n   ************* ..extra time during simulation. Each construction is calculated by the algorithm indicated in the HeatBalanceAlgorithm\n   ************* ..object. You may remove the constructions indicated (when you use the DisplayExtraWarnings option).\n   *************\n   ************* EnergyPlus Warmup Error Summary. During Warmup: 0 Warning; 0 Severe Errors.\n   ************* EnergyPlus Sizing Error Summary. During Sizing: 148 Warning; 0 Severe Errors.\n   ************* EnergyPlus Completed Successfully-- 187 Warning; 0 Severe Errors; Elapsed Time=00hr 01min  0.86sec\n",
  "file_format_version": "0.0.1",
  "file_paths": [
    "/mnt/openstudio/analysis_d904aff1-dbdd-41a2-aced-0d4c12834994/data_point_c566d152-4100-4e8e-b600-3d48eed90378/generated_files",
    "../weather",
    "../seeds",
    "../seed",
    "./files",
    "./weather",
    "../../files",
    "../../weather",
    "./"
  ],
  "hash": "A4F22CE1",
  "measure_paths": [
    "../measures"
  ],
  "name": "MediumOffice",
  "osa_id": "d904aff1-dbdd-41a2-aced-0d4c12834994",
  "osd_id": "c566d152-4100-4e8e-b600-3d48eed90378",
  "run_directory": "./run",
  "seed_file": "EmptyModel.osm",
  "started_at": "20211224T151752Z",
  "steps": [
    {
      "arguments": {
        "building_type": "MediumOffice",
        "epw_file": "BC_Victoria",
        "sideload": false,
        "template": "NECB2017"
      },
      "description": "This measure creates an NECB prototype building from scratch and uses it as the base for an analysis.",
      "measure_dir_name": "nrc_create_necb_prototype_building",
      "name": "nrc_create_necb_prototype_building",
      "result": {
        "completed_at": "20211224T151844Z",
        "measure_class_name": "NrcCreateNECBPrototypeBuilding",
        "measure_display_name": "NrcCreateNECBPrototypeBuilding",
        "measure_name": "nrc_create_necb_prototype_building",
        "measure_taxonomy": "Whole Building.Space Types",
        "measure_type": "ModelMeasure",
        "measure_uid": "3e9acd53-8602-4749-a655-7cbbe48e8b30",
        "measure_version_id": "4f33ab2f-0b19-4860-8ada-ac0f5a5dcf17",
        "measure_version_modified": "20211224T141224Z",
        "measure_xml_checksum": "2C38F48B",
        "started_at": "20211224T151759Z",
        "stderr": "",
        "stdout": "",
        "step_errors": [],
        "step_files": [],
        "step_info": [
          "Using OpenStudio Standards version 0.2.15 with template NECB2017.",
          "Started adding weather file for climate zone: NECB HDD Method.",
          "Added Victoria Intl AP Ann Clg .4% Condns DB=>MWB design day.",
          "Added Victoria Intl AP Ann Htg 99.6% Condns DB design day.",
          "Loaded space type map from model",
          "Finished adding geometry",
          "Using OpenStudio Standards version 0.2.15 with template NECB2017.",
          "Using OpenStudio Standards version 0.2.15 with template NECB2011.",
          "Started applying space types (loads)",
          "Space Function - undefined - had no ventilation specification, one has been created.",
          "Space Function - undefined - had no infiltration objects, one has been created.",
          "Space Function - undefined - set infiltration to 0.0 per ft^2 exterior surface area.",
          "Space Function - undefined - set infiltration schedule to Always On.",
          "Space Function Office open plan had no people, one has been created.",
          "Space Function Office open plan set occupancy to 4.646840148698885 people/1000 ft^2.",
          "Space Function Office open plan had no lights, one has been created.",
          "Space Function Office open plan set LPD to 0.80825 W/ft^2.",
          "Space Function Office open plan had no electric equipment, one has been created.",
          "Space Function Office open plan set electric EPD to 0.6970260223048327 W/ft^2.",
          "Space Function Office open plan had no ventilation specification, one has been created.",
          "Space Function Office open plan set ventilation per person to 30.127999999999997 cfm/person.",
          "Space Function Office open plan had no infiltration objects, one has been created.",
          "Space Function Office open plan set infiltration to 0.0 per ft^2 exterior surface area.",
          "Space Function Office open plan set occupancy schedule to NECB-A-Occupancy.",
          "Space Function Office open plan set occupant activity schedule to NECB-Activity.",
          "Space Function Office open plan set lighting schedule to OS:Schedule:Ruleset,\n  {fe6ae98c-d5be-4f08-b69d-962d15d24a93}, !- Handle\n  NECB-A-Occupancy-NECB-A-Lighting-0.2-0.1-0.67-Light Ruleset, !- Name\n  {67a39d39-050c-4de1-8825-1df0ccf725e3}, !- Schedule Type Limits Name\n  {4f0b7c40-085f-492e-bd99-f452ef88069b}; !- Default Day Schedule Name\n\n.",
          "Space Function Office open plan set electric equipment schedule to NECB-A-Electric-Equipment.",
          "Space Function Office open plan set infiltration schedule to Always On.",
          "Space Function Office open plan set heating setpoint schedule to NECB-A-Thermostat Setpoint-Heating.",
          "Space Function Office open plan set cooling setpoint schedule to NECB-A-Thermostat Setpoint-Cooling.",
          "Finished applying space types (loads)",
          "Finished adding geometry",
          "For NECB2017, no exterior wall area was found, no infiltration will be added.",
          "For NECB2017, no exterior wall area was found, no infiltration will be added.",
          "For NECB2017, no exterior wall area was found, no infiltration will be added.",
          "Started applying constructions",
          "Finished applying constructions",
          "Started creating thermal zones",
          "Finished creating thermal zones",
          "This building has no exposed ceilings adjacent to spaces that are not attics or plenums.  No skylights will be added.",
          "Finished adding geometry",
          "Using OpenStudio Standards version 0.2.15 with template NECB2017.",
          "Started creating thermal zones",
          "Finished creating thermal zones",
          "Running simulation /mnt/openstudio/analysis_d904aff1-dbdd-41a2-aced-0d4c12834994/data_point_c566d152-4100-4e8e-b600-3d48eed90378/run/000_nrc_create_necb_prototype_building/autozone.",
          "Finished run.",
          "Finished adding geometry",
          "Using OpenStudio Standards version 0.2.15 with template NECB2017.",
          "Running simulation /mnt/openstudio/analysis_d904aff1-dbdd-41a2-aced-0d4c12834994/data_point_c566d152-4100-4e8e-b600-3d48eed90378/run/000_nrc_create_necb_prototype_building/autozone_systems.",
          "Finished run.",
          "Started Adding Service Water Heating",
          "Added water heater called 125gal Electricity Water Heater - 84kBtu/hr",
          "Added circulating SWH loop called Main Service Water Loop",
          "Finished adding Service Water Heating",
          "Set sizing factors to 1.3 for heating and 1.3 for cooling.",
          "Finished adding geometry",
          "Running simulation /mnt/openstudio/analysis_d904aff1-dbdd-41a2-aced-0d4c12834994/data_point_c566d152-4100-4e8e-b600-3d48eed90378/run/000_nrc_create_necb_prototype_building/plant_loops.",
          "Finished run.",
          "Started applying prototype HVAC assumptions.",
          "For Sys6 Return Fan: allowed_hp = 3.0HP; motor eff = 46.15%; total fan eff = 30% based on 11243 cfm.",
          "For Sys6 Return Fan 1: allowed_hp = 3.03HP; motor eff = 46.15%; total fan eff = 30% based on 11333 cfm.",
          "For Sys6 Return Fan 2: allowed_hp = 3.17HP; motor eff = 46.15%; total fan eff = 30% based on 11844 cfm.",
          "For Sys6 Supply Fan: allowed_hp = 12.02HP; motor eff = 84.61%; total fan eff = 55% based on 11243 cfm.",
          "For Sys6 Supply Fan 1: allowed_hp = 12.11HP; motor eff = 84.61%; total fan eff = 55% based on 11333 cfm.",
          "For Sys6 Supply Fan 2: allowed_hp = 12.66HP; motor eff = 84.61%; total fan eff = 55% based on 11844 cfm.",
          "sys_6|mixed|shr>none|sh>c-e|sc>c-chw|ssf>vv|zh>b-e|zc>none|srf>vv| requires an economizer because the 'Design Supply Air Flow Rate' of 5306.09242629827 L/s exceeds the minimum air flow rate of 1500 L/s.",
          "sys_6|mixed|shr>none|sh>c-e|sc>c-chw|ssf>vv|zh>b-e|zc>none|srf>vv| requires an economizer because the total cooling capacity of 295885 Btu/hr exceeds the minimum capacity of 68243 Btu/hr.",
          "sys_6|mixed|shr>none|sh>c-e|sc>c-chw|ssf>vv|zh>b-e|zc>none|srf>vv| 1 requires an economizer because the 'Design Supply Air Flow Rate' of 5348.736937292198 L/s exceeds the minimum air flow rate of 1500 L/s.",
          "sys_6|mixed|shr>none|sh>c-e|sc>c-chw|ssf>vv|zh>b-e|zc>none|srf>vv| 1 requires an economizer because the total cooling capacity of 298421 Btu/hr exceeds the minimum capacity of 68243 Btu/hr.",
          "sys_6|mixed|shr>none|sh>c-e|sc>c-chw|ssf>vv|zh>b-e|zc>none|srf>vv| 2 requires an economizer because the 'Design Supply Air Flow Rate' of 5589.7007238123415 L/s exceeds the minimum air flow rate of 1500 L/s.",
          "sys_6|mixed|shr>none|sh>c-e|sc>c-chw|ssf>vv|zh>b-e|zc>none|srf>vv| 2 requires an economizer because the total cooling capacity of 311080 Btu/hr exceeds the minimum capacity of 68243 Btu/hr.",
          "Finished applying prototype HVAC assumptions.",
          "Started applying HVAC efficiency standards for NECB2017 template.",
          "For sys_6|mixed|shr>none|sh>c-e|sc>c-chw|ssf>vv|zh>b-e|zc>none|srf>vv|: Annual occupied hours = 2860 hr/yr, assuming a 0.15 occupancy threshold.  This schedule will be used as the HVAC operation schedule.",
          "For sys_6|mixed|shr>none|sh>c-e|sc>c-chw|ssf>vv|zh>b-e|zc>none|srf>vv|: VAV damper action was set to Single Maximum control.",
          "For Sys6 Return Fan: Set fan curve coefficients to reflect control type of 'Multi Zone VAV with discharge dampers'.",
          "For Sys6 Supply Fan: Set fan curve coefficients to reflect control type of 'Multi Zone VAV with discharge dampers'.",
          "For NECB2017 NECB HDD Method:  sys_6|mixed|shr>none|sh>c-e|sc>c-chw|ssf>vv|zh>b-e|zc>none|srf>vv|: DCV is not required for any system.",
          "For sys_6|mixed|shr>none|sh>c-e|sc>c-chw|ssf>vv|zh>b-e|zc>none|srf>vv|: Because the system has an economizer, it requires a motorized OA damper.",
          "For sys_6|mixed|shr>none|sh>c-e|sc>c-chw|ssf>vv|zh>b-e|zc>none|srf>vv|: Setting motorized OA damper schedule to sys_6|mixed|shr>none|sh>c-e|sc>c-chw|ssf>vv|zh>b-e|zc>none|srf>vv| Occ Sch.",
          "For sys_6|mixed|shr>none|sh>c-e|sc>c-chw|ssf>vv|zh>b-e|zc>none|srf>vv|: Optimum start is required since design flow rate of 11243 cfm exceeds the limit of 10000 cfm.",
          "For sys_6|mixed|shr>none|sh>c-e|sc>c-chw|ssf>vv|zh>b-e|zc>none|srf>vv|: Optimum start control enabled.",
          "For sys_6|mixed|shr>none|sh>c-e|sc>c-chw|ssf>vv|zh>b-e|zc>none|srf>vv| 1: Annual occupied hours = 2860 hr/yr, assuming a 0.15 occupancy threshold.  This schedule will be used as the HVAC operation schedule.",
          "For sys_6|mixed|shr>none|sh>c-e|sc>c-chw|ssf>vv|zh>b-e|zc>none|srf>vv| 1: VAV damper action was set to Single Maximum control.",
          "For Sys6 Return Fan 1: Set fan curve coefficients to reflect control type of 'Multi Zone VAV with discharge dampers'.",
          "For Sys6 Supply Fan 1: Set fan curve coefficients to reflect control type of 'Multi Zone VAV with discharge dampers'.",
          "For NECB2017 NECB HDD Method:  sys_6|mixed|shr>none|sh>c-e|sc>c-chw|ssf>vv|zh>b-e|zc>none|srf>vv| 1: DCV is not required for any system.",
          "For sys_6|mixed|shr>none|sh>c-e|sc>c-chw|ssf>vv|zh>b-e|zc>none|srf>vv| 1: Because the system has an economizer, it requires a motorized OA damper.",
          "For sys_6|mixed|shr>none|sh>c-e|sc>c-chw|ssf>vv|zh>b-e|zc>none|srf>vv| 1: Setting motorized OA damper schedule to sys_6|mixed|shr>none|sh>c-e|sc>c-chw|ssf>vv|zh>b-e|zc>none|srf>vv| 1 Occ Sch.",
          "For sys_6|mixed|shr>none|sh>c-e|sc>c-chw|ssf>vv|zh>b-e|zc>none|srf>vv| 1: Optimum start is required since design flow rate of 11333 cfm exceeds the limit of 10000 cfm.",
          "For sys_6|mixed|shr>none|sh>c-e|sc>c-chw|ssf>vv|zh>b-e|zc>none|srf>vv| 1: Optimum start control enabled.",
          "For sys_6|mixed|shr>none|sh>c-e|sc>c-chw|ssf>vv|zh>b-e|zc>none|srf>vv| 2: Annual occupied hours = 2860 hr/yr, assuming a 0.15 occupancy threshold.  This schedule will be used as the HVAC operation schedule.",
          "For sys_6|mixed|shr>none|sh>c-e|sc>c-chw|ssf>vv|zh>b-e|zc>none|srf>vv| 2: VAV damper action was set to Single Maximum control.",
          "For Sys6 Return Fan 2: Set fan curve coefficients to reflect control type of 'Multi Zone VAV with discharge dampers'.",
          "For Sys6 Supply Fan 2: Set fan curve coefficients to reflect control type of 'Multi Zone VAV with discharge dampers'.",
          "For NECB2017 NECB HDD Method:  sys_6|mixed|shr>none|sh>c-e|sc>c-chw|ssf>vv|zh>b-e|zc>none|srf>vv| 2: DCV is not required for any system.",
          "For sys_6|mixed|shr>none|sh>c-e|sc>c-chw|ssf>vv|zh>b-e|zc>none|srf>vv| 2: Because the system has an economizer, it requires a motorized OA damper.",
          "For sys_6|mixed|shr>none|sh>c-e|sc>c-chw|ssf>vv|zh>b-e|zc>none|srf>vv| 2: Setting motorized OA damper schedule to sys_6|mixed|shr>none|sh>c-e|sc>c-chw|ssf>vv|zh>b-e|zc>none|srf>vv| 2 Occ Sch.",
          "For sys_6|mixed|shr>none|sh>c-e|sc>c-chw|ssf>vv|zh>b-e|zc>none|srf>vv| 2: Optimum start is required since design flow rate of 11844 cfm exceeds the limit of 10000 cfm.",
          "For sys_6|mixed|shr>none|sh>c-e|sc>c-chw|ssf>vv|zh>b-e|zc>none|srf>vv| 2: Optimum start control enabled.",
          "For Sys6 Return Fan: motor nameplate = 3HP, motor eff = 46.15%.",
          "For Sys6 Return Fan 1: motor nameplate = 3HP, motor eff = 46.15%.",
          "For Sys6 Return Fan 2: motor nameplate = 3HP, motor eff = 46.15%.",
          "For Sys6 Supply Fan: motor nameplate = 11HP, motor eff = 84.61%.",
          "For Sys6 Supply Fan 1: motor nameplate = 11HP, motor eff = 84.61%.",
          "For Sys6 Supply Fan 2: motor nameplate = 12HP, motor eff = 84.61%.",
          "For Main Service Water Loop Circulator Pump: brake hp = 0.02HP, motor nameplate = 0.1HP, motor eff = 70.0%.",
          "For Pump Constant Speed 1: brake hp = 3.25HP, motor nameplate = 5HP, motor eff = 89.5%.",
          "For Pump Constant Speed 2: brake hp = 7.71HP, motor nameplate = 10HP, motor eff = 91.7%.",
          "For NECB2017: Primary Chiller WaterCooled Scroll 75tons 0.8kW/ton: WaterCooled  Scroll Capacity = 75tons; COP = 4.5 (0.8kW/ton)",
          "For NECB2017: Secondary Chiller WaterCooled Scroll 0tons 0.8kW/ton: WaterCooled  Scroll Capacity = 0tons; COP = 4.5 (0.8kW/ton)",
          "For NECB2017: 125gal Electricity Water Heater - 84kBtu/hr 1 Therm Eff; thermal efficiency = 1, skin-loss UA = 6Btu/hr",
          "Finished applying HVAC efficiency standards for NECB2017 template.",
          "Running simulation /mnt/openstudio/analysis_d904aff1-dbdd-41a2-aced-0d4c12834994/data_point_c566d152-4100-4e8e-b600-3d48eed90378/run/000_nrc_create_necb_prototype_building/SR2.",
          "does not have an Output Variable attached.",
          "does not have an Output Meter attached.",
          "does not have an Output Variable attached.",
          "does not have an Output Meter attached.",
          "does not have an Output Variable attached.",
          "does not have an Output Meter attached.",
          "Finished run.",
          "Total Time = 45sec."
        ],
        "step_result": "Success",
        "step_values": [
          {
            "name": "template",
            "value": "NECB2017"
          },
          {
            "name": "building_type",
            "value": "MediumOffice"
          },
          {
            "name": "epw_file",
            "value": "BC_Victoria"
          },
          {
            "name": "sideload",
            "value": false
          }
        ],
        "step_warnings": [
          "[openstudio.EpwFile] Successive data points (2011-Jan-31 to 2008-Feb-01, ending on line 753) are greater than 1 day apart in EPW file '/var/gems/openstudio-standards/data/weather/CAN_BC_Victoria.Intl.AP.717990_CWEC2016.epw'. Data will be treated as typical (TMY)",
          "[openstudio.weather.Model] Could not find ground temperatures in stat file; will use standards lookup.",
          "[openstudio.weather.Model] Could not find ground temperatures in standards lookup; will use generic temperatures, which will skew results.",
          "[openstudio.EpwFile] Successive data points (2011-Jan-31 to 2008-Feb-01, ending on line 753) are greater than 1 day apart in EPW file '/var/gems/openstudio-standards/data/weather/CAN_BC_Victoria.Intl.AP.717990_CWEC2016.epw'. Data will be treated as typical (TMY)",
          "[openstudio.EpwFile] Successive data points (2011-Jan-31 to 2008-Feb-01, ending on line 753) are greater than 1 day apart in EPW file '/var/gems/openstudio-standards/data/weather/CAN_BC_Victoria.Intl.AP.717990_CWEC2016.epw'. Data will be treated as typical (TMY)",
          "[openstudio.EpwFile] Successive data points (2011-Jan-31 to 2008-Feb-01, ending on line 753) are greater than 1 day apart in EPW file '/var/gems/openstudio-standards/data/weather/CAN_BC_Victoria.Intl.AP.717990_CWEC2016.epw'. Data will be treated as typical (TMY)",
          "[openstudio.EpwFile] Successive data points (2011-Jan-31 to 2008-Feb-01, ending on line 753) are greater than 1 day apart in EPW file '/var/gems/openstudio-standards/data/weather/CAN_BC_Victoria.Intl.AP.717990_CWEC2016.epw'. Data will be treated as typical (TMY)",
          "[openstudio.model.ChillerElectricEIR] Cannot set condenserType to 'WaterCooled', chiller 'Chiller Electric EIR 1' is not connected to a secondaryPlantLoop",
          "[openstudio.model.ChillerElectricEIR] Cannot set condenserType to 'WaterCooled', chiller 'Chiller Electric EIR 2' is not connected to a secondaryPlantLoop",
          "[openstudio.standards.Fan] For Sys6 Return Fan, there is no greater nominal HP.  Use the efficiency of the largest motor category.",
          "[openstudio.standards.Fan] For Sys6 Return Fan 1, there is no greater nominal HP.  Use the efficiency of the largest motor category.",
          "[openstudio.standards.Fan] For Sys6 Return Fan 2, there is no greater nominal HP.  Use the efficiency of the largest motor category.",
          "[openstudio.standards.Fan] For Sys6 Supply Fan, there is no greater nominal HP.  Use the efficiency of the largest motor category.",
          "[openstudio.standards.Fan] For Sys6 Supply Fan 1, there is no greater nominal HP.  Use the efficiency of the largest motor category.",
          "[openstudio.standards.Fan] For Sys6 Supply Fan 2, there is no greater nominal HP.  Use the efficiency of the largest motor category.",
          "[openstudio.EpwFile] Successive data points (2011-Jan-31 to 2008-Feb-01, ending on line 753) are greater than 1 day apart in EPW file '/var/gems/openstudio-standards/data/weather/CAN_BC_Victoria.Intl.AP.717990_CWEC2016.epw'. Data will be treated as typical (TMY)",
          "[openstudio.EpwFile] Successive data points (2011-Jan-31 to 2008-Feb-01, ending on line 753) are greater than 1 day apart in EPW file '/var/gems/openstudio-standards/data/weather/CAN_BC_Victoria.Intl.AP.717990_CWEC2016.epw'. Data will be treated as typical (TMY)",
          "[openstudio.EpwFile] Successive data points (2011-Jan-31 to 2008-Feb-01, ending on line 753) are greater than 1 day apart in EPW file '/var/gems/openstudio-standards/data/weather/CAN_BC_Victoria.Intl.AP.717990_CWEC2016.epw'. Data will be treated as typical (TMY)",
          "[openstudio.standards.Fan] For Sys6 Return Fan, there is no greater nominal HP.  Use the efficiency of the largest motor category.",
          "[openstudio.standards.Fan] For Sys6 Return Fan 1, there is no greater nominal HP.  Use the efficiency of the largest motor category.",
          "[openstudio.standards.Fan] For Sys6 Return Fan 2, there is no greater nominal HP.  Use the efficiency of the largest motor category.",
          "[openstudio.standards.Fan] For Sys6 Supply Fan, there is no greater nominal HP.  Use the efficiency of the largest motor category.",
          "[openstudio.standards.Fan] For Sys6 Supply Fan 1, there is no greater nominal HP.  Use the efficiency of the largest motor category.",
          "[openstudio.standards.Fan] For Sys6 Supply Fan 2, there is no greater nominal HP.  Use the efficiency of the largest motor category.",
          "[openstudio.standards.CoolingTower] For Cooling Tower Single Speed 1, cannot find heat rejection properties, cannot apply standard efficiencies or curves."
        ]
      }
    },
    {
      "arguments": {
        "air_loops_detail_section": true,
        "annual_overview_section": true,
        "building_summary_section": true,
        "cost_summary_section": true,
        "envelope_section_section": true,
        "exterior_light_section": true,
        "hvac_load_profile": true,
        "interior_lighting_section": true,
        "measure_warning_section": true,
        "monthly_overview_section": true,
        "outdoor_air_section": true,
        "plant_loops_detail_section": true,
        "plug_loads_section": true,
        "reg_monthly_details": false,
        "schedules_overview_section": true,
        "source_energy_section": true,
        "space_type_breakdown_section": true,
        "space_type_details_section": true,
        "units": "SI",
        "utility_bills_rates_section": true,
        "water_use_section": true,
        "zone_condition_section": true,
        "zone_equipment_detail_section": true,
        "zone_summary_section": true
      },
      "description": "This measure creates high level tables and charts pulling both from model inputs and EnergyPlus results. It has building level information as well as detail on space types, thermal zones, HVAC systems, envelope characteristics, and economics. Click the heading above a chart to view a table of the chart data.",
      "measure_dir_name": "da737820-833d-4734-8131-f962d58ea8e2",
      "name": "openstudio_results",
      "result": {
        "completed_at": "20211224T152000Z",
        "measure_class_name": "OpenStudioResults",
        "measure_display_name": "OpenStudio Results",
        "measure_name": "openstudio_results",
        "measure_taxonomy": "Reporting.QAQC",
        "measure_type": "ReportingMeasure",
        "measure_uid": "a25386cd-60e4-46bc-8b11-c755f379d916",
        "measure_version_id": "da737820-833d-4734-8131-f962d58ea8e2",
        "measure_version_modified": "20210423T144543Z",
        "measure_xml_checksum": "557BF06F",
        "started_at": "20211224T151951Z",
        "stderr": "",
        "stdout": "",
        "step_errors": [],
        "step_files": [
          "/mnt/openstudio/analysis_d904aff1-dbdd-41a2-aced-0d4c12834994/data_point_c566d152-4100-4e8e-b600-3d48eed90378/run/001_da737820-833d-4734-8131-f962d58ea8e2/report.html"
        ],
        "step_final_condition": "Generated report with 22 sections to ./report.html.",
        "step_info": [],
        "step_initial_condition": "Gathering data from EnergyPlus SQL file and OSM model. Will report in SI Units",
        "step_result": "Success",
        "step_values": [
          {
            "name": "units",
            "value": "SI"
          },
          {
            "name": "building_summary_section",
            "value": true
          },
          {
            "name": "annual_overview_section",
            "value": true
          },
          {
            "name": "monthly_overview_section",
            "value": true
          },
          {
            "name": "utility_bills_rates_section",
            "value": true
          },
          {
            "name": "envelope_section_section",
            "value": true
          },
          {
            "name": "space_type_breakdown_section",
            "value": true
          },
          {
            "name": "space_type_details_section",
            "value": true
          },
          {
            "name": "interior_lighting_section",
            "value": true
          },
          {
            "name": "plug_loads_section",
            "value": true
          },
          {
            "name": "exterior_light_section",
            "value": true
          },
          {
            "name": "water_use_section",
            "value": true
          },
          {
            "name": "hvac_load_profile",
            "value": true
          },
          {
            "name": "zone_condition_section",
            "value": true
          },
          {
            "name": "zone_summary_section",
            "value": true
          },
          {
            "name": "zone_equipment_detail_section",
            "value": true
          },
          {
            "name": "air_loops_detail_section",
            "value": true
          },
          {
            "name": "plant_loops_detail_section",
            "value": true
          },
          {
            "name": "outdoor_air_section",
            "value": true
          },
          {
            "name": "cost_summary_section",
            "value": true
          },
          {
            "name": "source_energy_section",
            "value": true
          },
          {
            "name": "schedules_overview_section",
            "value": true
          },
          {
            "name": "measure_warning_section",
            "value": true
          },
          {
            "name": "reg_monthly_details",
            "value": false
          },
          {
            "name": "standards_gem_version",
            "value": "0.2.15"
          },
          {
            "name": "workflow_gem_version",
            "value": "2.0.0"
          },
          {
            "display_name": "MediumOffice",
            "name": "building_name",
            "value": "n/a"
          },
          {
            "name": "total_site_energy",
            "units": "kWh",
            "value": 610566.6666666666
          },
          {
            "name": "net_site_energy",
            "units": "kWh",
            "value": 610566.6666666666
          },
          {
            "name": "total_building_area",
            "units": "m^2",
            "value": 4982.19
          },
          {
            "name": "total_site_eui",
            "units": "kWh/m^2",
            "value": 122.54985592012082
          },
          {
            "name": "eui",
            "units": "kWh/m^2",
            "value": 122.54985592012082
          },
          {
            "name": "unmet_hours_during_heating",
            "units": "hr",
            "value": 9
          },
          {
            "name": "unmet_hours_during_cooling",
            "units": "hr",
            "value": 80.33
          },
          {
            "name": "unmet_hours_during_occupied_heating",
            "units": "hr",
            "value": 9
          },
          {
            "name": "unmet_hours_during_occupied_cooling",
            "units": "hr",
            "value": 75.5
          },
          {
            "name": "unmet_hours_tolerance_heating",
            "units": "K",
            "value": 1
          },
          {
            "name": "unmet_hours_tolerance_cooling",
            "units": "K",
            "value": 1
          },
          {
            "name": "end_use_heating",
            "units": "kWh",
            "value": 169966.66666666666
          },
          {
            "name": "end_use_cooling",
            "units": "kWh",
            "value": 27550
          },
          {
            "name": "end_use_interior_lighting",
            "units": "kWh",
            "value": 121938.8888888889
          },
          {
            "name": "end_use_exterior_lighting",
            "units": "kWh",
            "value": 0
          },
          {
            "name": "end_use_interior_equipment",
            "units": "kWh",
            "value": 138380.55555555556
          },
          {
            "name": "end_use_exterior_equipment",
            "units": "kWh",
            "value": 0
          },
          {
            "name": "end_use_fans",
            "units": "kWh",
            "value": 79300
          },
          {
            "name": "end_use_pumps",
            "units": "kWh",
            "value": 14652.77777777778
          },
          {
            "name": "end_use_heat_rejection",
            "units": "kWh",
            "value": 1347.2222222222222
          },
          {
            "name": "end_use_humidification",
            "units": "kWh",
            "value": 0
          },
          {
            "name": "end_use_heat_recovery",
            "units": "kWh",
            "value": 0
          },
          {
            "name": "end_use_water_systems",
            "units": "kWh",
            "value": 57430.555555555555
          },
          {
            "name": "end_use_refrigeration",
            "units": "kWh",
            "value": 0
          },
          {
            "name": "end_use_generators",
            "units": "kWh",
            "value": 0
          },
          {
            "name": "fuel_electricity",
            "units": "kBtu",
            "value": 2083339.9431334839
          },
          {
            "name": "fuel_natural_gas",
            "units": "kBtu",
            "value": 0
          },
          {
            "name": "fuel_additional_fuel",
            "units": "kBtu",
            "value": 0
          },
          {
            "name": "fuel_district_cooling",
            "units": "kBtu",
            "value": 0
          },
          {
            "name": "fuel_district_heating",
            "units": "kBtu",
            "value": 0
          },
          {
            "name": "end_use_electricity_heating",
            "units": "kWh",
            "value": 169966.66666666666
          },
          {
            "name": "end_use_electricity_cooling",
            "units": "kWh",
            "value": 27550
          },
          {
            "name": "end_use_electricity_interior_lighting",
            "units": "kWh",
            "value": 121938.8888888889
          },
          {
            "name": "end_use_electricity_exterior_lighting",
            "units": "kWh",
            "value": 0
          },
          {
            "name": "end_use_electricity_interior_equipment",
            "units": "kWh",
            "value": 138380.55555555556
          },
          {
            "name": "end_use_electricity_exterior_equipment",
            "units": "kWh",
            "value": 0
          },
          {
            "name": "end_use_electricity_fans",
            "units": "kWh",
            "value": 79300
          },
          {
            "name": "end_use_electricity_pumps",
            "units": "kWh",
            "value": 14652.77777777778
          },
          {
            "name": "end_use_electricity_heat_rejection",
            "units": "kWh",
            "value": 1347.2222222222222
          },
          {
            "name": "end_use_electricity_humidification",
            "units": "kWh",
            "value": 0
          },
          {
            "name": "end_use_electricity_heat_recovery",
            "units": "kWh",
            "value": 0
          },
          {
            "name": "end_use_electricity_water_systems",
            "units": "kWh",
            "value": 57430.555555555555
          },
          {
            "name": "end_use_electricity_refrigeration",
            "units": "kWh",
            "value": 0
          },
          {
            "name": "end_use_electricity_generators",
            "units": "kWh",
            "value": 0
          },
          {
            "name": "end_use_natural_gas_heating",
            "units": "kWh",
            "value": 0
          },
          {
            "name": "end_use_natural_gas_cooling",
            "units": "kWh",
            "value": 0
          },
          {
            "name": "end_use_natural_gas_interior_lighting",
            "units": "kWh",
            "value": 0
          },
          {
            "name": "end_use_natural_gas_exterior_lighting",
            "units": "kWh",
            "value": 0
          },
          {
            "name": "end_use_natural_gas_interior_equipment",
            "units": "kWh",
            "value": 0
          },
          {
            "name": "end_use_natural_gas_exterior_equipment",
            "units": "kWh",
            "value": 0
          },
          {
            "name": "end_use_natural_gas_fans",
            "units": "kWh",
            "value": 0
          },
          {
            "name": "end_use_natural_gas_pumps",
            "units": "kWh",
            "value": 0
          },
          {
            "name": "end_use_natural_gas_heat_rejection",
            "units": "kWh",
            "value": 0
          },
          {
            "name": "end_use_natural_gas_humidification",
            "units": "kWh",
            "value": 0
          },
          {
            "name": "end_use_natural_gas_heat_recovery",
            "units": "kWh",
            "value": 0
          },
          {
            "name": "end_use_natural_gas_water_systems",
            "units": "kWh",
            "value": 0
          },
          {
            "name": "end_use_natural_gas_refrigeration",
            "units": "kWh",
            "value": 0
          },
          {
            "name": "end_use_natural_gas_generators",
            "units": "kWh",
            "value": 0
          },
          {
            "name": "electricity_heating_ip",
            "units": "kWh",
            "value": 169966.75
          },
          {
            "name": "electricity_cooling_ip",
            "units": "kWh",
            "value": 27550.53797619167
          },
          {
            "name": "electricity_interior_lighting_ip",
            "units": "kWh",
            "value": 121939.6388888889
          },
          {
            "name": "electricity_exterior_lighting_ip",
            "units": "kWh",
            "value": 0
          },
          {
            "name": "electricity_interior_equipment_ip",
            "units": "kWh",
            "value": 138380.66666666666
          },
          {
            "name": "electricity_exterior_equipment_ip",
            "units": "kWh",
            "value": 0
          },
          {
            "name": "electricity_fans_ip",
            "units": "kWh",
            "value": 79299.61111111111
          },
          {
            "name": "electricity_pumps_ip",
            "units": "kWh",
            "value": 14651.619405541665
          },
          {
            "name": "electricity_heat_rejection_ip",
            "units": "kWh",
            "value": 1346.2317293444446
          },
          {
            "name": "electricity_humidification_ip",
            "units": "kWh",
            "value": 0
          },
          {
            "name": "electricity_heat_recovery_ip",
            "units": "kWh",
            "value": 0
          },
          {
            "name": "electricity_water_systems_ip",
            "units": "kWh",
            "value": 57431.69444444445
          },
          {
            "name": "electricity_refrigeration_ip",
            "units": "kWh",
            "value": 0
          },
          {
            "name": "electricity_generators_ip",
            "units": "kWh",
            "value": 0
          },
          {
            "name": "electricity_ip",
            "units": "kWh",
            "value": 610566.7502221889
          },
          {
            "name": "natural_gas_heating_ip",
            "units": "kWh",
            "value": 0
          },
          {
            "name": "natural_gas_cooling_ip",
            "units": "kWh",
            "value": 0
          },
          {
            "name": "natural_gas_interior_lighting_ip",
            "units": "kWh",
            "value": 0
          },
          {
            "name": "natural_gas_exterior_lighting_ip",
            "units": "kWh",
            "value": 0
          },
          {
            "name": "natural_gas_interior_equipment_ip",
            "units": "kWh",
            "value": 0
          },
          {
            "name": "natural_gas_exterior_equipment_ip",
            "units": "kWh",
            "value": 0
          },
          {
            "name": "natural_gas_fans_ip",
            "units": "kWh",
            "value": 0
          },
          {
            "name": "natural_gas_pumps_ip",
            "units": "kWh",
            "value": 0
          },
          {
            "name": "natural_gas_heat_rejection_ip",
            "units": "kWh",
            "value": 0
          },
          {
            "name": "natural_gas_humidification_ip",
            "units": "kWh",
            "value": 0
          },
          {
            "name": "natural_gas_heat_recovery_ip",
            "units": "kWh",
            "value": 0
          },
          {
            "name": "natural_gas_water_systems_ip",
            "units": "kWh",
            "value": 0
          },
          {
            "name": "natural_gas_refrigeration_ip",
            "units": "kWh",
            "value": 0
          },
          {
            "name": "natural_gas_generators_ip",
            "units": "kWh",
            "value": 0
          },
          {
            "name": "natural_gas_ip",
            "units": "kWh",
            "value": 0
          },
          {
            "name": "additional_fuel_heating_ip",
            "units": "kWh",
            "value": 0
          },
          {
            "name": "additional_fuel_cooling_ip",
            "units": "kWh",
            "value": 0
          },
          {
            "name": "additional_fuel_interior_lighting_ip",
            "units": "kWh",
            "value": 0
          },
          {
            "name": "additional_fuel_exterior_lighting_ip",
            "units": "kWh",
            "value": 0
          },
          {
            "name": "additional_fuel_interior_equipment_ip",
            "units": "kWh",
            "value": 0
          },
          {
            "name": "additional_fuel_exterior_equipment_ip",
            "units": "kWh",
            "value": 0
          },
          {
            "name": "additional_fuel_fans_ip",
            "units": "kWh",
            "value": 0
          },
          {
            "name": "additional_fuel_pumps_ip",
            "units": "kWh",
            "value": 0
          },
          {
            "name": "additional_fuel_heat_rejection_ip",
            "units": "kWh",
            "value": 0
          },
          {
            "name": "additional_fuel_humidification_ip",
            "units": "kWh",
            "value": 0
          },
          {
            "name": "additional_fuel_heat_recovery_ip",
            "units": "kWh",
            "value": 0
          },
          {
            "name": "additional_fuel_water_systems_ip",
            "units": "kWh",
            "value": 0
          },
          {
            "name": "additional_fuel_refrigeration_ip",
            "units": "kWh",
            "value": 0
          },
          {
            "name": "additional_fuel_generators_ip",
            "units": "kWh",
            "value": 0
          },
          {
            "name": "additional_fuel_ip",
            "units": "kWh",
            "value": 0
          },
          {
            "name": "district_cooling_heating_ip",
            "units": "kWh",
            "value": 0
          },
          {
            "name": "district_cooling_cooling_ip",
            "units": "kWh",
            "value": 0
          },
          {
            "name": "district_cooling_interior_lighting_ip",
            "units": "kWh",
            "value": 0
          },
          {
            "name": "district_cooling_exterior_lighting_ip",
            "units": "kWh",
            "value": 0
          },
          {
            "name": "district_cooling_interior_equipment_ip",
            "units": "kWh",
            "value": 0
          },
          {
            "name": "district_cooling_exterior_equipment_ip",
            "units": "kWh",
            "value": 0
          },
          {
            "name": "district_cooling_fans_ip",
            "units": "kWh",
            "value": 0
          },
          {
            "name": "district_cooling_pumps_ip",
            "units": "kWh",
            "value": 0
          },
          {
            "name": "district_cooling_heat_rejection_ip",
            "units": "kWh",
            "value": 0
          },
          {
            "name": "district_cooling_humidification_ip",
            "units": "kWh",
            "value": 0
          },
          {
            "name": "district_cooling_heat_recovery_ip",
            "units": "kWh",
            "value": 0
          },
          {
            "name": "district_cooling_water_systems_ip",
            "units": "kWh",
            "value": 0
          },
          {
            "name": "district_cooling_refrigeration_ip",
            "units": "kWh",
            "value": 0
          },
          {
            "name": "district_cooling_generators_ip",
            "units": "kWh",
            "value": 0
          },
          {
            "name": "district_cooling_ip",
            "units": "kWh",
            "value": 0
          },
          {
            "name": "district_heating_heating_ip",
            "units": "kWh",
            "value": 0
          },
          {
            "name": "district_heating_cooling_ip",
            "units": "kWh",
            "value": 0
          },
          {
            "name": "district_heating_interior_lighting_ip",
            "units": "kWh",
            "value": 0
          },
          {
            "name": "district_heating_exterior_lighting_ip",
            "units": "kWh",
            "value": 0
          },
          {
            "name": "district_heating_interior_equipment_ip",
            "units": "kWh",
            "value": 0
          },
          {
            "name": "district_heating_exterior_equipment_ip",
            "units": "kWh",
            "value": 0
          },
          {
            "name": "district_heating_fans_ip",
            "units": "kWh",
            "value": 0
          },
          {
            "name": "district_heating_pumps_ip",
            "units": "kWh",
            "value": 0
          },
          {
            "name": "district_heating_heat_rejection_ip",
            "units": "kWh",
            "value": 0
          },
          {
            "name": "district_heating_humidification_ip",
            "units": "kWh",
            "value": 0
          },
          {
            "name": "district_heating_heat_recovery_ip",
            "units": "kWh",
            "value": 0
          },
          {
            "name": "district_heating_water_systems_ip",
            "units": "kWh",
            "value": 0
          },
          {
            "name": "district_heating_refrigeration_ip",
            "units": "kWh",
            "value": 0
          },
          {
            "name": "district_heating_generators_ip",
            "units": "kWh",
            "value": 0
          },
          {
            "name": "district_heating_ip",
            "units": "kWh",
            "value": 0
          },
          {
            "name": "btap_ext_roof_metal_u_0_193",
            "units": "m^2",
            "value": 1660.7286318000001
          },
          {
            "name": "btap_ext_wall_mass_u_0_315",
            "units": "m^2",
            "value": 1186.6012254720006
          },
          {
            "name": "btap_ext_fixed_window_u_0_210_shgc_0_600",
            "units": "m^2",
            "value": 791.0674836479994
          },
          {
            "name": "gross_window_wall_ratio",
            "units": "%",
            "value": 40
          },
          {
            "name": "gross_window_wall_ratio_conditioned",
            "units": "%",
            "value": 57.78
          },
          {
            "name": "skylight_roof_ratio",
            "units": "%",
            "value": 0
          },
          {
            "name": "space_type_space_function_undefined",
            "units": "m^2",
            "value": 0
          },
          {
            "name": "space_type_space_function_office_open_plan",
            "units": "m^2",
            "value": 4982.1858954
          },
          {
            "name": "core_bottom_service_water_use_0_37_gal_min",
            "units": "m^3/h",
            "value": 0.08462545208902693
          },
          {
            "name": "core_mid_service_water_use_0_37_gal_min",
            "units": "m^3/h",
            "value": 0.08462545208902693
          },
          {
            "name": "core_top_service_water_use_0_37_gal_min",
            "units": "m^3/h",
            "value": 0.08462545208902693
          },
          {
            "name": "perimeter_bot_zn_1_service_water_use_0_08_gal_min",
            "units": "m^3/h",
            "value": 0.01783978798395114
          },
          {
            "name": "perimeter_bot_zn_2_service_water_use_0_05_gal_min",
            "units": "m^3/h",
            "value": 0.011294061488079625
          },
          {
            "name": "perimeter_bot_zn_3_service_water_use_0_08_gal_min",
            "units": "m^3/h",
            "value": 0.01783978798395114
          },
          {
            "name": "perimeter_bot_zn_4_service_water_use_0_05_gal_min",
            "units": "m^3/h",
            "value": 0.011293320650986295
          },
          {
            "name": "perimeter_mid_zn_1_service_water_use_0_08_gal_min",
            "units": "m^3/h",
            "value": 0.01783978798395114
          },
          {
            "name": "perimeter_mid_zn_2_service_water_use_0_05_gal_min",
            "units": "m^3/h",
            "value": 0.011294061488079625
          },
          {
            "name": "perimeter_mid_zn_3_service_water_use_0_08_gal_min",
            "units": "m^3/h",
            "value": 0.01783978798395114
          },
          {
            "name": "perimeter_mid_zn_4_service_water_use_0_05_gal_min",
            "units": "m^3/h",
            "value": 0.011293320650986295
          },
          {
            "name": "perimeter_top_zn_1_service_water_use_0_08_gal_min",
            "units": "m^3/h",
            "value": 0.01783978798395114
          },
          {
            "name": "perimeter_top_zn_2_service_water_use_0_05_gal_min",
            "units": "m^3/h",
            "value": 0.011294061488079625
          },
          {
            "name": "perimeter_top_zn_3_service_water_use_0_08_gal_min",
            "units": "m^3/h",
            "value": 0.01783978798395114
          },
          {
            "name": "perimeter_top_zn_4_service_water_use_0_05_gal_min",
            "units": "m^3/h",
            "value": 0.011293320650986295
          },
          {
            "name": "zone_max_hours_over_70_rh",
            "units": "hr",
            "value": 100
          },
          {
            "name": "zone_max_hours_over_55_rh",
            "units": "hr",
            "value": 746
          },
          {
            "name": "num_zones_x_hours_over_70",
            "units": "zones",
            "value": 3
          },
          {
            "name": "num_zones_x_hours_over_55",
            "units": "zones",
            "value": 16
          },
          {
            "name": "inflation_approach",
            "value": "Constant Dollar"
          },
          {
            "name": "analysis_length",
            "units": "yrs",
            "value": 25
          },
          {
            "name": "number_of_measures_with_warnings",
            "value": 1
          },
          {
            "name": "number_warnings",
            "value": 25
          },
          {
            "name": "annual_peak_electric_demand",
            "units": "kW",
            "value": 268.9887
          },
          {
            "name": "first_year_capital_cost",
            "units": "$",
            "value": 0
          },
          {
            "name": "annual_utility_cost",
            "units": "$",
            "value": 0
          },
          {
            "name": "total_lifecycle_cost",
            "units": "$",
            "value": 0
          }
        ],
        "step_warnings": []
      }
    },
    {
      "arguments": {
        "calc_choice": "Use rates below",
        "electricity_cost": 0.1,
        "gas_cost": 0.2
      },
      "description": "This measure calculates utility costs for Canadian locations. By default a simple $/kWh tarrif can be applied but for \n\t    several locations more complex rules are enabled.\n\t\tPeak values are reported averaged over the hour (the default LEED table produced by E+ reports the PEAK timestep value).",
      "measure_dir_name": "nrc_report_utility_costs",
      "name": "nrc_report_utility_costs",
      "result": {
        "completed_at": "20211224T152000Z",
        "measure_class_name": "NrcReportUtilityCosts",
        "measure_display_name": "Report Utility Costs",
        "measure_name": "nrc_report_utility_costs",
        "measure_taxonomy": "Reporting.QAQC",
        "measure_type": "ReportingMeasure",
        "measure_uid": "224561f4-8ccc-4f60-8118-34b85359d6f1",
        "measure_version_id": "a8a2acdd-191f-47e2-b076-e7b60c4dacb5",
        "measure_version_modified": "20211224T150114Z",
        "measure_xml_checksum": "9BF1E6AC",
        "started_at": "20211224T152000Z",
        "stderr": "",
        "stdout": "",
        "step_errors": [],
        "step_files": [
          "/mnt/openstudio/analysis_d904aff1-dbdd-41a2-aced-0d4c12834994/data_point_c566d152-4100-4e8e-b600-3d48eed90378/run/002_nrc_report_utility_costs/report.html"
        ],
        "step_info": [],
        "step_result": "Success",
        "step_values": [
          {
            "name": "calc_choice",
            "value": "Use rates below"
          },
          {
            "name": "electricity_cost",
            "value": 0.1
          },
          {
            "name": "gas_cost",
            "value": 0.2
          },
          {
            "name": "total_site_energy",
            "units": "kWh",
            "value": 610600
          },
          {
            "name": "annual_electricity_use_k_wh",
            "units": "kWh",
            "value": 611000
          },
          {
            "name": "annual_natural_gas_use_gj",
            "units": "GJ",
            "value": 0
          },
          {
            "name": "annual_electricity_cost",
            "units": "$",
            "value": 61056.72
          },
          {
            "name": "annual_natural_gas_cost",
            "units": "$",
            "value": 0
          }
        ],
        "step_warnings": []
      }
    }
  ],
  "updated_at": "20211224T152005Z",
  "weather_file": "SeedWeather.epw"
}