Program Version,EnergyPlus, Version 9.5.0-de239b2e5f, YMD=2022.05.18 09:12
! <Version>, Version ID
 Version, 9.5
! <Timesteps per Hour>, #TimeSteps, Minutes per TimeStep {minutes}
 Timesteps per Hour,  6, 10
! <System Convergence Limits>, Minimum System TimeStep {minutes}, Max HVAC Iterations, Minimum Plant Iterations, Maximum Plant Iterations
 System Convergence Limits, 1, 20, 2, 8
! <Simulation Control>, Do Zone Sizing, Do System Sizing, Do Plant Sizing, Do Design Days, Do Weather Simulation, Do HVAC Sizing Simulation
 Simulation Control, Yes, Yes, Yes, Yes, No, Yes
! <Performance Precision Tradeoffs>, Use Coil Direct Simulation, Zone Radiant Exchange Algorithm, Override Mode, Number of Timestep In Hour, Force Euler Method, Minimum Number of Warmup Days, Force Suppress All Begin Environment Resets, Minimum System Timestep, MaxZoneTempDiff, MaxAllowedDelTemp
 Performance Precision Tradeoffs, No, ScriptF, Normal, 6, No, 1, No, 1.0, 0.300, 2.0000E-003
! <Output Reporting Tolerances>, Tolerance for Time Heating Setpoint Not Met, Tolerance for Zone Cooling Setpoint Not Met Time
 Output Reporting Tolerances, 1.000, 1.000, 
! <Site:GroundTemperature:BuildingSurface>,Jan{C},Feb{C},Mar{C},Apr{C},May{C},Jun{C},Jul{C},Aug{C},Sep{C},Oct{C},Nov{C},Dec{C}
 Site:GroundTemperature:BuildingSurface,  19.53,  19.50,  19.54,  19.60,  20.00,  21.64,  22.23,  22.38,  21.45,  20.12,  19.80,  19.63
! <Site:GroundTemperature:FCfactorMethod>,Jan{C},Feb{C},Mar{C},Apr{C},May{C},Jun{C},Jul{C},Aug{C},Sep{C},Oct{C},Nov{C},Dec{C}
 Site:GroundTemperature:FCfactorMethod,   0.43,  -0.56,   1.20,   3.96,  11.16,  16.72,  20.47,  21.61,  19.67,  15.35,   9.58,   4.23
! <Site:GroundTemperature:Shallow>,Jan{C},Feb{C},Mar{C},Apr{C},May{C},Jun{C},Jul{C},Aug{C},Sep{C},Oct{C},Nov{C},Dec{C}
 Site:GroundTemperature:Shallow,  13.00,  13.00,  13.00,  13.00,  13.00,  13.00,  13.00,  13.00,  13.00,  13.00,  13.00,  13.00
! <Site:GroundTemperature:Deep>,Jan{C},Feb{C},Mar{C},Apr{C},May{C},Jun{C},Jul{C},Aug{C},Sep{C},Oct{C},Nov{C},Dec{C}
 Site:GroundTemperature:Deep,  16.00,  16.00,  16.00,  16.00,  16.00,  16.00,  16.00,  16.00,  16.00,  16.00,  16.00,  16.00
! <Site:GroundReflectance>,Jan{dimensionless},Feb{dimensionless},Mar{dimensionless},Apr{dimensionless},May{dimensionless},Jun{dimensionless},Jul{dimensionless},Aug{dimensionless},Sep{dimensionless},Oct{dimensionless},Nov{dimensionless},Dec{dimensionless}
 Site:GroundReflectance,  0.20,  0.20,  0.20,  0.20,  0.20,  0.20,  0.20,  0.20,  0.20,  0.20,  0.20,  0.20
! <Site:GroundReflectance:SnowModifier>, Normal, Daylighting {dimensionless}
 Site:GroundReflectance:SnowModifier,   1.000,   1.000
! <Site:GroundReflectance:Snow>,Jan{dimensionless},Feb{dimensionless},Mar{dimensionless},Apr{dimensionless},May{dimensionless},Jun{dimensionless},Jul{dimensionless},Aug{dimensionless},Sep{dimensionless},Oct{dimensionless},Nov{dimensionless},Dec{dimensionless}
 Site:GroundReflectance:Snow,  0.20,  0.20,  0.20,  0.20,  0.20,  0.20,  0.20,  0.20,  0.20,  0.20,  0.20,  0.20
! <Site:GroundReflectance:Snow:Daylighting>,Jan{dimensionless},Feb{dimensionless},Mar{dimensionless},Apr{dimensionless},May{dimensionless},Jun{dimensionless},Jul{dimensionless},Aug{dimensionless},Sep{dimensionless},Oct{dimensionless},Nov{dimensionless},Dec{dimensionless}
 Site:GroundReflectance:Snow:Daylighting,  0.20,  0.20,  0.20,  0.20,  0.20,  0.20,  0.20,  0.20,  0.20,  0.20,  0.20,  0.20
! <Environment:Weather Station>,Wind Sensor Height Above Ground {m},Wind Speed Profile Exponent {},Wind Speed Profile Boundary Layer Thickness {m},Air Temperature Sensor Height Above Ground {m},Wind Speed Modifier Coefficient-Internal,Temperature Modifier Coefficient-Internal
Environment:Weather Station,10.000,0.140,270.000,1.500,1.586,9.750E-003
! <Site:Location>, Location Name, Latitude {N+/S- Deg}, Longitude {E+/W- Deg},  Time Zone Number {GMT+/-}, Elevation {m},  Standard Pressure at Elevation {Pa}, Standard RhoAir at Elevation
Site:Location,Windsor Intl AP ON CAN CWEC2016 WMO#=715380,42.28,-82.96,-5.00,189.60,99068,1.1775
! <Site Water Mains Temperature Information>,Calculation Method{},Water Mains Temperature Schedule Name{},Annual Average Outdoor Air Temperature{C},Maximum Difference In Monthly Average Outdoor Air Temperatures{deltaC},Fixed Default Water Mains Temperature{C}
Site Water Mains Temperature Information,Correlation,NA,10.51,24.60,NA
! <Building Information>, Building Name,North Axis {deg},Terrain,  Loads Convergence Tolerance Value,Temperature Convergence Tolerance Value,  Solar Distribution,Maximum Number of Warmup Days,Minimum Number of Warmup Days
 Building Information,SmallOffice_Rectangular_NECB2017,0.000,Suburbs,4.00000E-002,0.40000,FullExterior,25,1
! <Inside Convection Algorithm>, Algorithm {Simple | TARP | CeilingDiffuser | AdaptiveConvectionAlgorithm}
Inside Convection Algorithm,TARP
! <Outside Convection Algorithm>, Algorithm {SimpleCombined | TARP | MoWitt | DOE-2 | AdaptiveConvectionAlgorithm}
Outside Convection Algorithm,TARP
! <Sky Radiance Distribution>, Value {Anisotropic}
Sky Radiance Distribution,Anisotropic
! <Zone Air Solution Algorithm>, Value {ThirdOrderBackwardDifference | AnalyticalSolution | EulerMethod}
 Zone Air Solution Algorithm, ThirdOrderBackwardDifference
! <Zone Air Carbon Dioxide Balance Simulation>, Simulation {Yes/No}, Carbon Dioxide Concentration
 Zone Air Carbon Dioxide Balance Simulation, No,N/A
! <Zone Air Generic Contaminant Balance Simulation>, Simulation {Yes/No}, Generic Contaminant Concentration
 Zone Air Generic Contaminant Balance Simulation, No,N/A
! <Zone Air Mass Flow Balance Simulation>, Enforce Mass Balance, Adjust Zone Mixing and Return {AdjustMixingOnly | AdjustReturnOnly | AdjustMixingThenReturn | AdjustReturnThenMixing | None}, Adjust Zone Infiltration {AddInfiltration | AdjustInfiltration | None}, Infiltration Zones {MixingSourceZonesOnly | AllZones}
 Zone Air Mass Flow Balance Simulation, No,N/A,N/A,N/A
! <HVACSystemRootFindingAlgorithm>, Value {RegulaFalsi | Bisection | BisectionThenRegulaFalsi | RegulaFalsiThenBisection}
 HVACSystemRootFindingAlgorithm, RegulaFalsi
! <Environment:Site Atmospheric Variation>,Wind Speed Profile Exponent {},Wind Speed Profile Boundary Layer Thickness {m},Air Temperature Gradient Coefficient {K/m}
Environment:Site Atmospheric Variation,0.220,370.000,6.500000E-003
! <Surface Geometry>,Starting Corner,Vertex Input Direction,Coordinate System,Daylight Reference Point Coordinate System,Rectangular (Simple) Surface Coordinate System
 Surface Geometry,UpperLeftCorner,Counterclockwise,RelativeCoordinateSystem,RelativeCoordinateSystem,RelativeToZoneOrigin
! <Surface Heat Transfer Algorithm>, Value {CTF - ConductionTransferFunction | EMPD - MoisturePenetrationDepthConductionTransferFunction | CondFD - ConductionFiniteDifference | HAMT - CombinedHeatAndMoistureFiniteElement} - Description,Inside Surface Max Temperature Limit{C}, Surface Convection Coefficient Lower Limit {W/m2-K}, Surface Convection Coefficient Upper Limit {W/m2-K}
Surface Heat Transfer Algorithm, CTF - ConductionTransferFunction,200,0.10,1000.0
! <Shading Summary>, Number of Fixed Detached Shades, Number of Building Detached Shades, Number of Attached Shades
 Shading Summary,0,0,0
! <Zone Summary>, Number of Zones, Number of Zone Surfaces, Number of SubSurfaces
 Zone Summary,5,43,13
! <Zone Information>,Zone Name,North Axis {deg},Origin X-Coordinate {m},Origin Y-Coordinate {m},Origin Z-Coordinate {m},Centroid X-Coordinate {m},Centroid Y-Coordinate {m},Centroid Z-Coordinate {m},Type,Zone Multiplier,Zone List Multiplier,Minimum X {m},Maximum X {m},Minimum Y {m},Maximum Y {m},Minimum Z {m},Maximum Z {m},Ceiling Height {m},Volume {m3},Zone Inside Convection Algorithm {Simple-Detailed-CeilingDiffuser-TrombeWall},Zone Outside Convection Algorithm {Simple-Detailed-Tarp-MoWitt-DOE-2-BLAST}, Floor Area {m2},Exterior Gross Wall Area {m2},Exterior Net Wall Area {m2},Exterior Window Area {m2}, Number of Surfaces, Number of SubSurfaces, Number of Shading SubSurfaces,  Part of Total Building Area
 Zone Information, ALL_ST=WHOLEBUILDING_FL=STORY 1_SCH=A,0.0,0.00,0.00,0.00,12.99,0.62,1.50,1,1,1,0.00,25.98,0.00,1.28,0.00,3.00,3.00,95.06,TARP,TARP,31.69,77.94,46.77,31.81,6,2,0,Yes
 Zone Information, ALL_ST=WHOLEBUILDING_FL=STORY 1_SCH=A 5,0.0,0.00,0.00,0.00,0.58,5.77,1.50,1,1,1,0.00,1.28,0.00,11.55,0.00,3.00,3.00,39.51,TARP,TARP,13.17,34.64,20.78,14.12,6,4,0,Yes
 Zone Information, ALL_ST=WHOLEBUILDING_FL=STORY 1_SCH=A 6,0.0,1.28,10.26,0.00,12.99,10.93,1.50,1,1,1,0.00,25.98,10.26,11.55,0.00,3.00,3.00,95.06,TARP,TARP,31.69,77.94,46.77,31.81,6,2,0,Yes
 Zone Information, ALL_ST=WHOLEBUILDING_FL=STORY 1_SCH=A 7,0.0,24.70,1.28,0.00,25.40,5.77,1.50,1,1,1,24.70,25.98,0.00,11.55,0.00,3.00,3.00,39.51,TARP,TARP,13.17,34.64,20.78,14.12,6,4,0,Yes
 Zone Information, ALL_ST=WHOLEBUILDING_FL=STORY 1_SCH=A 8,0.0,1.28,1.28,0.00,12.99,5.77,1.50,1,1,1,1.28,24.70,1.28,10.26,0.00,3.00,3.00,630.86,TARP,TARP,210.29,0.00,0.00,4.21,6,1,0,Yes
! <Zone Internal Gains Nominal>,Zone Name, Floor Area {m2},# Occupants,Area per Occupant {m2/person},Occupant per Area {person/m2},Interior Lighting {W/m2},Electric Load {W/m2},Gas Load {W/m2},Other Load {W/m2},Hot Water Eq {W/m2},Steam Equipment {W/m2},Sum Loads per Area {W/m2},Outdoor Controlled Baseboard Heat
 Zone Internal Gains Nominal, ALL_ST=WHOLEBUILDING_FL=STORY 1_SCH=A,31.69,1.3,24.991,4.001E-002,6.900,7.503,0.000,0.000,0.000,0.000,14.403,No
 Zone Internal Gains Nominal, ALL_ST=WHOLEBUILDING_FL=STORY 1_SCH=A 5,13.17,0.5,24.991,4.001E-002,6.900,7.503,0.000,0.000,0.000,0.000,14.403,No
 Zone Internal Gains Nominal, ALL_ST=WHOLEBUILDING_FL=STORY 1_SCH=A 6,31.69,1.3,24.991,4.001E-002,6.900,7.503,0.000,0.000,0.000,0.000,14.403,No
 Zone Internal Gains Nominal, ALL_ST=WHOLEBUILDING_FL=STORY 1_SCH=A 7,13.17,0.5,24.991,4.001E-002,6.900,7.503,0.000,0.000,0.000,0.000,14.403,No
 Zone Internal Gains Nominal, ALL_ST=WHOLEBUILDING_FL=STORY 1_SCH=A 8,210.29,8.4,24.991,4.001E-002,6.900,7.503,0.000,0.000,0.000,0.000,14.403,No
! <People Internal Gains Nominal>,Name,Schedule Name,Zone Name,Zone Floor Area {m2},# Zone Occupants,Number of People {},People/Floor Area {person/m2},Floor Area per person {m2/person},Fraction Radiant,Fraction Convected,Sensible Fraction Calculation,Activity level,ASHRAE 55 Warnings,Carbon Dioxide Generation Rate,Nominal Minimum Number of People,Nominal Maximum Number of People
 People Internal Gains Nominal, ALL_ST=WHOLEBUILDING_FL=STORY 1_SCH=A OFFICE WHOLEBUILDING PEOPLE,NECB-A-OCCUPANCY,ALL_ST=WHOLEBUILDING_FL=STORY 1_SCH=A,31.69,1.3,1.3,4.001E-002,24.991,0.300,0.700,AutoCalculate,NECB-ACTIVITY,No,3.8200E-008,0,1
 People Internal Gains Nominal, ALL_ST=WHOLEBUILDING_FL=STORY 1_SCH=A 5 OFFICE WHOLEBUILDING PEOPLE,NECB-A-OCCUPANCY,ALL_ST=WHOLEBUILDING_FL=STORY 1_SCH=A 5,13.17,0.5,0.5,4.001E-002,24.991,0.300,0.700,AutoCalculate,NECB-ACTIVITY,No,3.8200E-008,0,0
 People Internal Gains Nominal, ALL_ST=WHOLEBUILDING_FL=STORY 1_SCH=A 6 OFFICE WHOLEBUILDING PEOPLE,NECB-A-OCCUPANCY,ALL_ST=WHOLEBUILDING_FL=STORY 1_SCH=A 6,31.69,1.3,1.3,4.001E-002,24.991,0.300,0.700,AutoCalculate,NECB-ACTIVITY,No,3.8200E-008,0,1
 People Internal Gains Nominal, ALL_ST=WHOLEBUILDING_FL=STORY 1_SCH=A 7 OFFICE WHOLEBUILDING PEOPLE,NECB-A-OCCUPANCY,ALL_ST=WHOLEBUILDING_FL=STORY 1_SCH=A 7,13.17,0.5,0.5,4.001E-002,24.991,0.300,0.700,AutoCalculate,NECB-ACTIVITY,No,3.8200E-008,0,0
 People Internal Gains Nominal, ALL_ST=WHOLEBUILDING_FL=STORY 1_SCH=A 8 OFFICE WHOLEBUILDING PEOPLE,NECB-A-OCCUPANCY,ALL_ST=WHOLEBUILDING_FL=STORY 1_SCH=A 8,210.29,8.4,8.4,4.001E-002,24.991,0.300,0.700,AutoCalculate,NECB-ACTIVITY,No,3.8200E-008,0,8
! <Lights Internal Gains Nominal>,Name,Schedule Name,Zone Name,Zone Floor Area {m2},# Zone Occupants,Lighting Level {W},Lights/Floor Area {W/m2},Lights per person {W/person},Fraction Return Air,Fraction Radiant,Fraction Short Wave,Fraction Convected,Fraction Replaceable,End-Use Category,Nominal Minimum Lighting Level {W},Nominal Maximum Lighting Level {W}
 Lights Internal Gains Nominal, ALL_ST=WHOLEBUILDING_FL=STORY 1_SCH=A OFFICE WHOLEBUILDING LIGHTS,NECB-A-LIGHTING,ALL_ST=WHOLEBUILDING_FL=STORY 1_SCH=A,31.69,1.3,218.642,6.900,172.437,0.000,0.500,0.200,0.300,1.000,General,10.932,196.778
 Lights Internal Gains Nominal, ALL_ST=WHOLEBUILDING_FL=STORY 1_SCH=A 5 OFFICE WHOLEBUILDING LIGHTS,NECB-A-LIGHTING,ALL_ST=WHOLEBUILDING_FL=STORY 1_SCH=A 5,13.17,0.5,90.864,6.900,172.437,0.000,0.500,0.200,0.300,1.000,General,4.543,81.778
 Lights Internal Gains Nominal, ALL_ST=WHOLEBUILDING_FL=STORY 1_SCH=A 6 OFFICE WHOLEBUILDING LIGHTS,NECB-A-LIGHTING,ALL_ST=WHOLEBUILDING_FL=STORY 1_SCH=A 6,31.69,1.3,218.642,6.900,172.437,0.000,0.500,0.200,0.300,1.000,General,10.932,196.778
 Lights Internal Gains Nominal, ALL_ST=WHOLEBUILDING_FL=STORY 1_SCH=A 7 OFFICE WHOLEBUILDING LIGHTS,NECB-A-LIGHTING,ALL_ST=WHOLEBUILDING_FL=STORY 1_SCH=A 7,13.17,0.5,90.864,6.900,172.437,0.000,0.500,0.200,0.300,1.000,General,4.543,81.778
 Lights Internal Gains Nominal, ALL_ST=WHOLEBUILDING_FL=STORY 1_SCH=A 8 OFFICE WHOLEBUILDING LIGHTS,NECB-A-LIGHTING,ALL_ST=WHOLEBUILDING_FL=STORY 1_SCH=A 8,210.29,8.4,1450.989,6.900,172.437,0.000,0.500,0.200,0.300,1.000,General,72.549,1305.890
! <ElectricEquipment Internal Gains Nominal>,Name,Schedule Name,Zone Name,Zone Floor Area {m2},# Zone Occupants,Equipment Level {W},Equipment/Floor Area {W/m2},Equipment per person {W/person},Fraction Latent,Fraction Radiant,Fraction Lost,Fraction Convected,End-Use SubCategory,Nominal Minimum Equipment Level {W},Nominal Maximum Equipment Level {W}
 ElectricEquipment Internal Gains Nominal, ALL_ST=WHOLEBUILDING_FL=STORY 1_SCH=A OFFICE WHOLEBUILDING ELEC EQUIP,NECB-A-ELECTRIC-EQUIPMENT,ALL_ST=WHOLEBUILDING_FL=STORY 1_SCH=A,31.69,1.3,237.741,7.503,187.500,0.000,0.500,0.000,0.500,General,47.548,213.967
 ElectricEquipment Internal Gains Nominal, ALL_ST=WHOLEBUILDING_FL=STORY 1_SCH=A 5 OFFICE WHOLEBUILDING ELEC EQUIP,NECB-A-ELECTRIC-EQUIPMENT,ALL_ST=WHOLEBUILDING_FL=STORY 1_SCH=A 5,13.17,0.5,98.801,7.503,187.500,0.000,0.500,0.000,0.500,General,19.760,88.921
 ElectricEquipment Internal Gains Nominal, ALL_ST=WHOLEBUILDING_FL=STORY 1_SCH=A 6 OFFICE WHOLEBUILDING ELEC EQUIP,NECB-A-ELECTRIC-EQUIPMENT,ALL_ST=WHOLEBUILDING_FL=STORY 1_SCH=A 6,31.69,1.3,237.741,7.503,187.500,0.000,0.500,0.000,0.500,General,47.548,213.967
 ElectricEquipment Internal Gains Nominal, ALL_ST=WHOLEBUILDING_FL=STORY 1_SCH=A 7 OFFICE WHOLEBUILDING ELEC EQUIP,NECB-A-ELECTRIC-EQUIPMENT,ALL_ST=WHOLEBUILDING_FL=STORY 1_SCH=A 7,13.17,0.5,98.801,7.503,187.500,0.000,0.500,0.000,0.500,General,19.760,88.921
 ElectricEquipment Internal Gains Nominal, ALL_ST=WHOLEBUILDING_FL=STORY 1_SCH=A 8 OFFICE WHOLEBUILDING ELEC EQUIP,NECB-A-ELECTRIC-EQUIPMENT,ALL_ST=WHOLEBUILDING_FL=STORY 1_SCH=A 8,210.29,8.4,1577.734,7.503,187.500,0.000,0.500,0.000,0.500,General,315.547,1419.960
! <Shadowing/Sun Position Calculations Annual Simulations>, Shading Calculation Method, Shading Calculation Update Frequency Method, Shading Calculation Update Frequency {days}, Maximum Figures in Shadow Overlap Calculations {}, Polygon Clipping Algorithm, Pixel Counting Resolution, Sky Diffuse Modeling Algorithm, Output External Shading Calculation Results, Disable Self-Shading Within Shading Zone Groups, Disable Self-Shading From Shading Zone Groups to Other Zones
Shadowing/Sun Position Calculations Annual Simulations,PolygonClipping,Periodic,20,15000,SutherlandHodgman,512,SimpleSkyDiffuseModeling,No,No,No
! <Water Heater Information>,Type,Name,Volume {m3},Maximum Capacity {W},Standard Rated Recovery Efficiency, Standard Rated Energy Factor
! <ZoneInfiltration Airflow Stats Nominal>,Name,Schedule Name,Zone Name, Zone Floor Area {m2}, # Zone Occupants,Design Volume Flow Rate {m3/s},Volume Flow Rate/Floor Area {m3/s-m2},Volume Flow Rate/Exterior Surface Area {m3/s-m2},ACH - Air Changes per Hour,Equation A - Constant Term Coefficient {},Equation B - Temperature Term Coefficient {1/C},Equation C - Velocity Term Coefficient {s/m}, Equation D - Velocity Squared Term Coefficient {s2/m2}
 ZoneInfiltration Airflow Stats Nominal, STORY 1 SOUTH PERIMETER SPACE INFILTRATION,ALWAYS ON DISCRETE,ALL_ST=WHOLEBUILDING_FL=STORY 1_SCH=A,31.69,1.3,5.089E-002,1.606E-003,4.642E-004,1.927,0.000,0.000,0.224,0.000
 ZoneInfiltration Airflow Stats Nominal, STORY 1 WEST PERIMETER SPACE INFILTRATION,ALWAYS ON DISCRETE,ALL_ST=WHOLEBUILDING_FL=STORY 1_SCH=A 5,13.17,0.5,2.219E-002,1.685E-003,4.642E-004,2.022,0.000,0.000,0.224,0.000
 ZoneInfiltration Airflow Stats Nominal, STORY 1 NORTH PERIMETER SPACE INFILTRATION,ALWAYS ON DISCRETE,ALL_ST=WHOLEBUILDING_FL=STORY 1_SCH=A 6,31.69,1.3,5.089E-002,1.606E-003,4.642E-004,1.927,0.000,0.000,0.224,0.000
 ZoneInfiltration Airflow Stats Nominal, STORY 1 EAST PERIMETER SPACE INFILTRATION,ALWAYS ON DISCRETE,ALL_ST=WHOLEBUILDING_FL=STORY 1_SCH=A 7,13.17,0.5,2.219E-002,1.685E-003,4.642E-004,2.022,0.000,0.000,0.224,0.000
 ZoneInfiltration Airflow Stats Nominal, STORY 1 CORE SPACE INFILTRATION,ALWAYS ON DISCRETE,ALL_ST=WHOLEBUILDING_FL=STORY 1_SCH=A 8,210.29,8.4,9.761E-002,4.642E-004,4.642E-004,0.557,0.000,0.000,0.224,0.000
! <AirFlow Model>, Simple
 AirFlow Model, Simple
! <RoomAir Model>, Zone Name, Mixing/Mundt/UCSDDV/UCSDCV/UCSDUFI/UCSDUFE/User Defined
RoomAir Model,ALL_ST=WHOLEBUILDING_FL=STORY 1_SCH=A,Mixing/Well-Stirred
RoomAir Model,ALL_ST=WHOLEBUILDING_FL=STORY 1_SCH=A 5,Mixing/Well-Stirred
RoomAir Model,ALL_ST=WHOLEBUILDING_FL=STORY 1_SCH=A 6,Mixing/Well-Stirred
RoomAir Model,ALL_ST=WHOLEBUILDING_FL=STORY 1_SCH=A 7,Mixing/Well-Stirred
RoomAir Model,ALL_ST=WHOLEBUILDING_FL=STORY 1_SCH=A 8,Mixing/Well-Stirred
! <AirflowNetwork Model:Control>, No Multizone or Distribution/Multizone with Distribution/Multizone without Distribution/Multizone with Distribution only during Fan Operation
AirflowNetwork Model:Control,NoMultizoneOrDistribution
! <Zone Volume Capacitance Multiplier>, Sensible Heat Capacity Multiplier, Moisture Capacity Multiplier, Carbon Dioxide Capacity Multiplier, Generic Contaminant Capacity Multiplier
Zone Volume Capacitance Multiplier,   1.000 ,   1.000,   1.000,   1.000
! <Load Timesteps in Zone Design Calculation Averaging Window>, Value
 Load Timesteps in Zone Design Calculation Averaging Window,    6
! <Heating Sizing Factor Information>, Sizing Factor ID, Value
 Heating Sizing Factor Information, Global,   1.3000    
 Heating Sizing Factor Information, Zone ALL_ST=WHOLEBUILDING_FL=STORY 1_SCH=A,   1.3000    
 Heating Sizing Factor Information, Zone ALL_ST=WHOLEBUILDING_FL=STORY 1_SCH=A 5,   1.3000    
 Heating Sizing Factor Information, Zone ALL_ST=WHOLEBUILDING_FL=STORY 1_SCH=A 6,   1.3000    
 Heating Sizing Factor Information, Zone ALL_ST=WHOLEBUILDING_FL=STORY 1_SCH=A 7,   1.3000    
 Heating Sizing Factor Information, Zone ALL_ST=WHOLEBUILDING_FL=STORY 1_SCH=A 8,   1.3000    
! <Cooling Sizing Factor Information>, Sizing Factor ID, Value
 Cooling Sizing Factor Information, Global,   1.1000    
 Cooling Sizing Factor Information, Zone ALL_ST=WHOLEBUILDING_FL=STORY 1_SCH=A,   1.1000    
 Cooling Sizing Factor Information, Zone ALL_ST=WHOLEBUILDING_FL=STORY 1_SCH=A 5,   1.1000    
 Cooling Sizing Factor Information, Zone ALL_ST=WHOLEBUILDING_FL=STORY 1_SCH=A 6,   1.1000    
 Cooling Sizing Factor Information, Zone ALL_ST=WHOLEBUILDING_FL=STORY 1_SCH=A 7,   1.1000    
 Cooling Sizing Factor Information, Zone ALL_ST=WHOLEBUILDING_FL=STORY 1_SCH=A 8,   1.1000    
! <Zone Sizing Information>, Zone Name, Load Type, Calc Des Load {W}, User Des Load {W}, Calc Des Air Flow Rate {m3/s}, User Des Air Flow Rate {m3/s}, Design Day Name, Date/Time of Peak, Temperature at Peak {C}, Humidity Ratio at Peak {kgWater/kgDryAir}, Floor Area {m2}, # Occupants, Calc Outdoor Air Flow Rate {m3/s}, Calc DOAS Heat Addition Rate {W}
 Zone Sizing Information, ALL_ST=WHOLEBUILDING_FL=STORY 1_SCH=A, Cooling, 6138.48305, 6752.33135, 0.46435, 0.51078, WINDSOR INTL AP ANN CLG .4% CONDNS DB=>MWB, 7/21 13:20:00, 31.69667, 1.45614E-002, 31.68724, 1.26795, 1.26503E-002, 0.00000
 Zone Sizing Information, ALL_ST=WHOLEBUILDING_FL=STORY 1_SCH=A, Heating, 4208.03336, 5470.44336, 0.16689, 0.21696, WINDSOR INTL AP ANN HTG 99.6% CONDNS DB, 1/21 08:00:00, -15.50000, 9.92508E-004, 31.68724, 1.26795, 1.26503E-002, 0.00000
 Zone Sizing Information, ALL_ST=WHOLEBUILDING_FL=STORY 1_SCH=A 5, Cooling, 4805.95207, 5286.54728, 0.36355, 0.39990, WINDSOR INTL AP ANN CLG .4% CONDNS DB=>MWB, 7/21 17:20:00, 30.42267, 1.45591E-002, 13.16872, 0.52694, 5.25727E-003, 0.00000
 Zone Sizing Information, ALL_ST=WHOLEBUILDING_FL=STORY 1_SCH=A 5, Heating, 1877.13472, 2440.27513, 7.44465E-002, 9.67805E-002, WINDSOR INTL AP ANN HTG 99.6% CONDNS DB, 1/21 08:00:00, -15.50000, 9.92508E-004, 13.16872, 0.52694, 5.25727E-003, 0.00000
 Zone Sizing Information, ALL_ST=WHOLEBUILDING_FL=STORY 1_SCH=A 6, Cooling, 2988.60521, 3287.46573, 0.22607, 0.24868, WINDSOR INTL AP ANN CLG .4% CONDNS DB=>MWB, 7/21 14:40:00, 32.00000, 1.45620E-002, 31.68724, 1.26795, 1.26503E-002, 0.00000
 Zone Sizing Information, ALL_ST=WHOLEBUILDING_FL=STORY 1_SCH=A 6, Heating, 4172.63157, 5424.42104, 0.16549, 0.21513, WINDSOR INTL AP ANN HTG 99.6% CONDNS DB, 1/21 08:00:00, -15.50000, 9.92508E-004, 31.68724, 1.26795, 1.26503E-002, 0.00000
 Zone Sizing Information, ALL_ST=WHOLEBUILDING_FL=STORY 1_SCH=A 7, Cooling, 4514.39918, 4965.83910, 0.34149, 0.37564, WINDSOR INTL AP ANN CLG .4% CONDNS DB=>MWB, 7/21 09:20:00, 27.51067, 1.45538E-002, 13.16872, 0.52694, 5.25727E-003, 0.00000
 Zone Sizing Information, ALL_ST=WHOLEBUILDING_FL=STORY 1_SCH=A 7, Heating, 1860.84431, 2419.09761, 7.38005E-002, 9.59406E-002, WINDSOR INTL AP ANN HTG 99.6% CONDNS DB, 1/21 08:00:00, -15.50000, 9.92508E-004, 13.16872, 0.52694, 5.25727E-003, 0.00000
 Zone Sizing Information, ALL_ST=WHOLEBUILDING_FL=STORY 1_SCH=A 8, Cooling, 7675.11230, 8442.62353, 0.58058, 0.63864, WINDSOR INTL AP ANN CLG .4% CONDNS DB=>MWB, 7/21 14:50:00, 32.00000, 1.45620E-002, 210.28807, 8.41458, 8.39520E-002, 0.00000
 Zone Sizing Information, ALL_ST=WHOLEBUILDING_FL=STORY 1_SCH=A 8, Heating, 5960.46243, 7748.60116, 0.23639, 0.30731, WINDSOR INTL AP ANN HTG 99.6% CONDNS DB, 1/21 08:00:00, -15.50000, 9.92508E-004, 210.28807, 8.41458, 8.39520E-002, 0.00000
! <System Sizing Information>, System Name, Load Type, Peak Load Kind, User Design Capacity, Calc Des Air Flow Rate [m3/s], User Des Air Flow Rate [m3/s], Design Day Name, Date/Time of Peak
 System Sizing Information, SYS_3|MIXED|SHR>NONE|SC>DX|SH>C-G|SSF>CV|ZH>B-HW|ZC>NONE|SRF>NONE|, Cooling, Sensible, 6760.56, 0.51078, 0.51078, WINDSOR INTL AP ANN CLG .4% CONDNS DB=>MWB, 7/21 05:00:00
 System Sizing Information, SYS_3|MIXED|SHR>NONE|SC>DX|SH>C-G|SSF>CV|ZH>B-HW|ZC>NONE|SRF>NONE|, Heating, Sensible, 5969.20, 0.21696, 0.21696, WINDSOR INTL AP ANN HTG 99.6% CONDNS DB, 1/21 07:20:00
 System Sizing Information, SYS_3|MIXED|SHR>NONE|SC>DX|SH>C-G|SSF>CV|ZH>B-HW|ZC>NONE|SRF>NONE| 1, Cooling, Sensible, 5242.75, 0.39990, 0.39990, WINDSOR INTL AP ANN CLG .4% CONDNS DB=>MWB, 7/21 05:00:00
 System Sizing Information, SYS_3|MIXED|SHR>NONE|SC>DX|SH>C-G|SSF>CV|ZH>B-HW|ZC>NONE|SRF>NONE| 1, Heating, Sensible, 2645.71, 9.67805E-002, 9.67805E-002, WINDSOR INTL AP ANN HTG 99.6% CONDNS DB, 1/21 07:30:00
 System Sizing Information, SYS_3|MIXED|SHR>NONE|SC>DX|SH>C-G|SSF>CV|ZH>B-HW|ZC>NONE|SRF>NONE| 2, Cooling, Sensible, 3355.10, 0.24868, 0.24868, WINDSOR INTL AP ANN CLG .4% CONDNS DB=>MWB, 7/21 05:00:00
 System Sizing Information, SYS_3|MIXED|SHR>NONE|SC>DX|SH>C-G|SSF>CV|ZH>B-HW|ZC>NONE|SRF>NONE| 2, Heating, Sensible, 5923.69, 0.21513, 0.21513, WINDSOR INTL AP ANN HTG 99.6% CONDNS DB, 1/21 07:20:00
 System Sizing Information, SYS_3|MIXED|SHR>NONE|SC>DX|SH>C-G|SSF>CV|ZH>B-HW|ZC>NONE|SRF>NONE| 3, Cooling, Sensible, 4909.04, 0.37564, 0.37564, WINDSOR INTL AP ANN CLG .4% CONDNS DB=>MWB, 7/21 05:00:00
 System Sizing Information, SYS_3|MIXED|SHR>NONE|SC>DX|SH>C-G|SSF>CV|ZH>B-HW|ZC>NONE|SRF>NONE| 3, Heating, Sensible, 2624.76, 9.59406E-002, 9.59406E-002, WINDSOR INTL AP ANN HTG 99.6% CONDNS DB, 1/21 07:30:00
 System Sizing Information, SYS_3|MIXED|SHR>NONE|SC>DX|SH>C-G|SSF>CV|ZH>B-HW|ZC>NONE|SRF>NONE| 4, Cooling, Sensible, 9105.02, 0.63864, 0.63864, WINDSOR INTL AP ANN CLG .4% CONDNS DB=>MWB, 7/21 05:00:00
 System Sizing Information, SYS_3|MIXED|SHR>NONE|SC>DX|SH>C-G|SSF>CV|ZH>B-HW|ZC>NONE|SRF>NONE| 4, Heating, Sensible, 11387.77, 0.30731, 0.30731, WINDSOR INTL AP ANN HTG 99.6% CONDNS DB, 1/21 07:20:00
! <Component Sizing Information>, Component Type, Component Name, Input Field Description, Value
 Component Sizing Information, AirTerminal:SingleDuct:ConstantVolume:NoReheat, AIR TERMINAL SINGLE DUCT CONSTANT VOLUME NO REHEAT 1, Design Size Maximum Air Flow Rate [m3/s], 0.51078
 Component Sizing Information, ZoneHVAC:Baseboard:Convective:Water, ZONE HVAC BASEBOARD CONVECTIVE WATER 1, Design Size Maximum Water Flow Rate [m3/s], 8.30931E-005
 Component Sizing Information, ZoneHVAC:Baseboard:Convective:Water, ZONE HVAC BASEBOARD CONVECTIVE WATER 1, Design Size U-Factor Times Area Value [W/K], 166.82083
 Component Sizing Information, AirTerminal:SingleDuct:ConstantVolume:NoReheat, AIR TERMINAL SINGLE DUCT CONSTANT VOLUME NO REHEAT 2, Design Size Maximum Air Flow Rate [m3/s], 0.39990
 Component Sizing Information, ZoneHVAC:Baseboard:Convective:Water, ZONE HVAC BASEBOARD CONVECTIVE WATER 2, Design Size Maximum Water Flow Rate [m3/s], 3.70665E-005
 Component Sizing Information, ZoneHVAC:Baseboard:Convective:Water, ZONE HVAC BASEBOARD CONVECTIVE WATER 2, Design Size U-Factor Times Area Value [W/K], 74.41431
 Component Sizing Information, AirTerminal:SingleDuct:ConstantVolume:NoReheat, AIR TERMINAL SINGLE DUCT CONSTANT VOLUME NO REHEAT 3, Design Size Maximum Air Flow Rate [m3/s], 0.24868
 Component Sizing Information, ZoneHVAC:Baseboard:Convective:Water, ZONE HVAC BASEBOARD CONVECTIVE WATER 3, Design Size Maximum Water Flow Rate [m3/s], 8.23941E-005
 Component Sizing Information, ZoneHVAC:Baseboard:Convective:Water, ZONE HVAC BASEBOARD CONVECTIVE WATER 3, Design Size U-Factor Times Area Value [W/K], 165.41883
 Component Sizing Information, AirTerminal:SingleDuct:ConstantVolume:NoReheat, AIR TERMINAL SINGLE DUCT CONSTANT VOLUME NO REHEAT 4, Design Size Maximum Air Flow Rate [m3/s], 0.37564
 Component Sizing Information, ZoneHVAC:Baseboard:Convective:Water, ZONE HVAC BASEBOARD CONVECTIVE WATER 4, Design Size Maximum Water Flow Rate [m3/s], 3.67448E-005
 Component Sizing Information, ZoneHVAC:Baseboard:Convective:Water, ZONE HVAC BASEBOARD CONVECTIVE WATER 4, Design Size U-Factor Times Area Value [W/K], 73.76917
 Component Sizing Information, AirTerminal:SingleDuct:ConstantVolume:NoReheat, AIR TERMINAL SINGLE DUCT CONSTANT VOLUME NO REHEAT 5, Design Size Maximum Air Flow Rate [m3/s], 0.63864
 Component Sizing Information, ZoneHVAC:Baseboard:Convective:Water, ZONE HVAC BASEBOARD CONVECTIVE WATER 5, Design Size Maximum Water Flow Rate [m3/s], 1.17697E-004
 Component Sizing Information, ZoneHVAC:Baseboard:Convective:Water, ZONE HVAC BASEBOARD CONVECTIVE WATER 5, Design Size U-Factor Times Area Value [W/K], 236.39377
 Component Sizing Information, AirLoopHVAC, SYS_3|MIXED|SHR>NONE|SC>DX|SH>C-G|SSF>CV|ZH>B-HW|ZC>NONE|SRF>NONE|, Sum of Air Terminal Maximum Heating Flow Rates [m3/s], 0.51078
 Component Sizing Information, AirLoopHVAC, SYS_3|MIXED|SHR>NONE|SC>DX|SH>C-G|SSF>CV|ZH>B-HW|ZC>NONE|SRF>NONE|, Sum of Air Terminal Minimum Heating Flow Rates [m3/s], 0.51078
 Component Sizing Information, AirLoopHVAC, SYS_3|MIXED|SHR>NONE|SC>DX|SH>C-G|SSF>CV|ZH>B-HW|ZC>NONE|SRF>NONE|, Sum of Air Terminal Maximum Flow Rates [m3/s], 0.51078
 Component Sizing Information, AirLoopHVAC, SYS_3|MIXED|SHR>NONE|SC>DX|SH>C-G|SSF>CV|ZH>B-HW|ZC>NONE|SRF>NONE|, Adjusted Heating Design Air Flow Rate [m3/s], 0.51078
 Component Sizing Information, AirLoopHVAC, SYS_3|MIXED|SHR>NONE|SC>DX|SH>C-G|SSF>CV|ZH>B-HW|ZC>NONE|SRF>NONE|, Adjusted Cooling Design Air Flow Rate [m3/s], 0.51078
 Component Sizing Information, AirLoopHVAC, SYS_3|MIXED|SHR>NONE|SC>DX|SH>C-G|SSF>CV|ZH>B-HW|ZC>NONE|SRF>NONE|, Adjusted Main Design Air Flow Rate [m3/s], 0.51078
 Component Sizing Information, AirLoopHVAC, SYS_3|MIXED|SHR>NONE|SC>DX|SH>C-G|SSF>CV|ZH>B-HW|ZC>NONE|SRF>NONE|, User Heating Air Flow Ratio [], 1.00000
 Component Sizing Information, AirLoopHVAC, SYS_3|MIXED|SHR>NONE|SC>DX|SH>C-G|SSF>CV|ZH>B-HW|ZC>NONE|SRF>NONE|, Calculated Heating Air Flow Ratio [], 1.00000
 Component Sizing Information, AirLoopHVAC, SYS_3|MIXED|SHR>NONE|SC>DX|SH>C-G|SSF>CV|ZH>B-HW|ZC>NONE|SRF>NONE| 1, Sum of Air Terminal Maximum Heating Flow Rates [m3/s], 0.39990
 Component Sizing Information, AirLoopHVAC, SYS_3|MIXED|SHR>NONE|SC>DX|SH>C-G|SSF>CV|ZH>B-HW|ZC>NONE|SRF>NONE| 1, Sum of Air Terminal Minimum Heating Flow Rates [m3/s], 0.39990
 Component Sizing Information, AirLoopHVAC, SYS_3|MIXED|SHR>NONE|SC>DX|SH>C-G|SSF>CV|ZH>B-HW|ZC>NONE|SRF>NONE| 1, Sum of Air Terminal Maximum Flow Rates [m3/s], 0.39990
 Component Sizing Information, AirLoopHVAC, SYS_3|MIXED|SHR>NONE|SC>DX|SH>C-G|SSF>CV|ZH>B-HW|ZC>NONE|SRF>NONE| 1, Adjusted Heating Design Air Flow Rate [m3/s], 0.39990
 Component Sizing Information, AirLoopHVAC, SYS_3|MIXED|SHR>NONE|SC>DX|SH>C-G|SSF>CV|ZH>B-HW|ZC>NONE|SRF>NONE| 1, Adjusted Cooling Design Air Flow Rate [m3/s], 0.39990
 Component Sizing Information, AirLoopHVAC, SYS_3|MIXED|SHR>NONE|SC>DX|SH>C-G|SSF>CV|ZH>B-HW|ZC>NONE|SRF>NONE| 1, Adjusted Main Design Air Flow Rate [m3/s], 0.39990
 Component Sizing Information, AirLoopHVAC, SYS_3|MIXED|SHR>NONE|SC>DX|SH>C-G|SSF>CV|ZH>B-HW|ZC>NONE|SRF>NONE| 1, User Heating Air Flow Ratio [], 1.00000
 Component Sizing Information, AirLoopHVAC, SYS_3|MIXED|SHR>NONE|SC>DX|SH>C-G|SSF>CV|ZH>B-HW|ZC>NONE|SRF>NONE| 1, Calculated Heating Air Flow Ratio [], 1.00000
 Component Sizing Information, AirLoopHVAC, SYS_3|MIXED|SHR>NONE|SC>DX|SH>C-G|SSF>CV|ZH>B-HW|ZC>NONE|SRF>NONE| 2, Sum of Air Terminal Maximum Heating Flow Rates [m3/s], 0.24868
 Component Sizing Information, AirLoopHVAC, SYS_3|MIXED|SHR>NONE|SC>DX|SH>C-G|SSF>CV|ZH>B-HW|ZC>NONE|SRF>NONE| 2, Sum of Air Terminal Minimum Heating Flow Rates [m3/s], 0.24868
 Component Sizing Information, AirLoopHVAC, SYS_3|MIXED|SHR>NONE|SC>DX|SH>C-G|SSF>CV|ZH>B-HW|ZC>NONE|SRF>NONE| 2, Sum of Air Terminal Maximum Flow Rates [m3/s], 0.24868
 Component Sizing Information, AirLoopHVAC, SYS_3|MIXED|SHR>NONE|SC>DX|SH>C-G|SSF>CV|ZH>B-HW|ZC>NONE|SRF>NONE| 2, Adjusted Heating Design Air Flow Rate [m3/s], 0.24868
 Component Sizing Information, AirLoopHVAC, SYS_3|MIXED|SHR>NONE|SC>DX|SH>C-G|SSF>CV|ZH>B-HW|ZC>NONE|SRF>NONE| 2, Adjusted Cooling Design Air Flow Rate [m3/s], 0.24868
 Component Sizing Information, AirLoopHVAC, SYS_3|MIXED|SHR>NONE|SC>DX|SH>C-G|SSF>CV|ZH>B-HW|ZC>NONE|SRF>NONE| 2, Adjusted Main Design Air Flow Rate [m3/s], 0.24868
 Component Sizing Information, AirLoopHVAC, SYS_3|MIXED|SHR>NONE|SC>DX|SH>C-G|SSF>CV|ZH>B-HW|ZC>NONE|SRF>NONE| 2, User Heating Air Flow Ratio [], 1.00000
 Component Sizing Information, AirLoopHVAC, SYS_3|MIXED|SHR>NONE|SC>DX|SH>C-G|SSF>CV|ZH>B-HW|ZC>NONE|SRF>NONE| 2, Calculated Heating Air Flow Ratio [], 1.00000
 Component Sizing Information, AirLoopHVAC, SYS_3|MIXED|SHR>NONE|SC>DX|SH>C-G|SSF>CV|ZH>B-HW|ZC>NONE|SRF>NONE| 3, Sum of Air Terminal Maximum Heating Flow Rates [m3/s], 0.37564
 Component Sizing Information, AirLoopHVAC, SYS_3|MIXED|SHR>NONE|SC>DX|SH>C-G|SSF>CV|ZH>B-HW|ZC>NONE|SRF>NONE| 3, Sum of Air Terminal Minimum Heating Flow Rates [m3/s], 0.37564
 Component Sizing Information, AirLoopHVAC, SYS_3|MIXED|SHR>NONE|SC>DX|SH>C-G|SSF>CV|ZH>B-HW|ZC>NONE|SRF>NONE| 3, Sum of Air Terminal Maximum Flow Rates [m3/s], 0.37564
 Component Sizing Information, AirLoopHVAC, SYS_3|MIXED|SHR>NONE|SC>DX|SH>C-G|SSF>CV|ZH>B-HW|ZC>NONE|SRF>NONE| 3, Adjusted Heating Design Air Flow Rate [m3/s], 0.37564
 Component Sizing Information, AirLoopHVAC, SYS_3|MIXED|SHR>NONE|SC>DX|SH>C-G|SSF>CV|ZH>B-HW|ZC>NONE|SRF>NONE| 3, Adjusted Cooling Design Air Flow Rate [m3/s], 0.37564
 Component Sizing Information, AirLoopHVAC, SYS_3|MIXED|SHR>NONE|SC>DX|SH>C-G|SSF>CV|ZH>B-HW|ZC>NONE|SRF>NONE| 3, Adjusted Main Design Air Flow Rate [m3/s], 0.37564
 Component Sizing Information, AirLoopHVAC, SYS_3|MIXED|SHR>NONE|SC>DX|SH>C-G|SSF>CV|ZH>B-HW|ZC>NONE|SRF>NONE| 3, User Heating Air Flow Ratio [], 1.00000
 Component Sizing Information, AirLoopHVAC, SYS_3|MIXED|SHR>NONE|SC>DX|SH>C-G|SSF>CV|ZH>B-HW|ZC>NONE|SRF>NONE| 3, Calculated Heating Air Flow Ratio [], 1.00000
 Component Sizing Information, AirLoopHVAC, SYS_3|MIXED|SHR>NONE|SC>DX|SH>C-G|SSF>CV|ZH>B-HW|ZC>NONE|SRF>NONE| 4, Sum of Air Terminal Maximum Heating Flow Rates [m3/s], 0.63864
 Component Sizing Information, AirLoopHVAC, SYS_3|MIXED|SHR>NONE|SC>DX|SH>C-G|SSF>CV|ZH>B-HW|ZC>NONE|SRF>NONE| 4, Sum of Air Terminal Minimum Heating Flow Rates [m3/s], 0.63864
 Component Sizing Information, AirLoopHVAC, SYS_3|MIXED|SHR>NONE|SC>DX|SH>C-G|SSF>CV|ZH>B-HW|ZC>NONE|SRF>NONE| 4, Sum of Air Terminal Maximum Flow Rates [m3/s], 0.63864
 Component Sizing Information, AirLoopHVAC, SYS_3|MIXED|SHR>NONE|SC>DX|SH>C-G|SSF>CV|ZH>B-HW|ZC>NONE|SRF>NONE| 4, Adjusted Heating Design Air Flow Rate [m3/s], 0.63864
 Component Sizing Information, AirLoopHVAC, SYS_3|MIXED|SHR>NONE|SC>DX|SH>C-G|SSF>CV|ZH>B-HW|ZC>NONE|SRF>NONE| 4, Adjusted Cooling Design Air Flow Rate [m3/s], 0.63864
 Component Sizing Information, AirLoopHVAC, SYS_3|MIXED|SHR>NONE|SC>DX|SH>C-G|SSF>CV|ZH>B-HW|ZC>NONE|SRF>NONE| 4, Adjusted Main Design Air Flow Rate [m3/s], 0.63864
 Component Sizing Information, AirLoopHVAC, SYS_3|MIXED|SHR>NONE|SC>DX|SH>C-G|SSF>CV|ZH>B-HW|ZC>NONE|SRF>NONE| 4, User Heating Air Flow Ratio [], 1.00000
 Component Sizing Information, AirLoopHVAC, SYS_3|MIXED|SHR>NONE|SC>DX|SH>C-G|SSF>CV|ZH>B-HW|ZC>NONE|SRF>NONE| 4, Calculated Heating Air Flow Ratio [], 1.00000
 Component Sizing Information, AirLoopHVAC, SYS_3|MIXED|SHR>NONE|SC>DX|SH>C-G|SSF>CV|ZH>B-HW|ZC>NONE|SRF>NONE|, Design Supply Air Flow Rate [m3/s], 0.51078
 Component Sizing Information, AirLoopHVAC, SYS_3|MIXED|SHR>NONE|SC>DX|SH>C-G|SSF>CV|ZH>B-HW|ZC>NONE|SRF>NONE| 1, Design Supply Air Flow Rate [m3/s], 0.39990
 Component Sizing Information, AirLoopHVAC, SYS_3|MIXED|SHR>NONE|SC>DX|SH>C-G|SSF>CV|ZH>B-HW|ZC>NONE|SRF>NONE| 2, Design Supply Air Flow Rate [m3/s], 0.24868
 Component Sizing Information, AirLoopHVAC, SYS_3|MIXED|SHR>NONE|SC>DX|SH>C-G|SSF>CV|ZH>B-HW|ZC>NONE|SRF>NONE| 3, Design Supply Air Flow Rate [m3/s], 0.37564
 Component Sizing Information, AirLoopHVAC, SYS_3|MIXED|SHR>NONE|SC>DX|SH>C-G|SSF>CV|ZH>B-HW|ZC>NONE|SRF>NONE| 4, Design Supply Air Flow Rate [m3/s], 0.63864
!<Controller:MechanicalVentilation>,Name,Availability Schedule Name,Demand Controlled Ventilation {Yes/No},System Outdoor Air Method,Zone Maximum Outdoor Air Fraction,Number of Zones,Zone Name,DSOA Name,DSZAD Name
 Controller:MechanicalVentilation,CONTROLLER MECHANICAL VENTILATION 1,ALWAYS ON DISCRETE,No,ZoneSum,1.00,1,ALL_ST=WHOLEBUILDING_FL=STORY 1_SCH=A,OFFICE WHOLEBUILDING VENTILATION,
 Controller:MechanicalVentilation,CONTROLLER MECHANICAL VENTILATION 2,ALWAYS ON DISCRETE,No,ZoneSum,1.00,1,ALL_ST=WHOLEBUILDING_FL=STORY 1_SCH=A 5,OFFICE WHOLEBUILDING VENTILATION,
 Controller:MechanicalVentilation,CONTROLLER MECHANICAL VENTILATION 3,ALWAYS ON DISCRETE,No,ZoneSum,1.00,1,ALL_ST=WHOLEBUILDING_FL=STORY 1_SCH=A 6,OFFICE WHOLEBUILDING VENTILATION,
 Controller:MechanicalVentilation,CONTROLLER MECHANICAL VENTILATION 4,ALWAYS ON DISCRETE,No,ZoneSum,1.00,1,ALL_ST=WHOLEBUILDING_FL=STORY 1_SCH=A 7,OFFICE WHOLEBUILDING VENTILATION,
 Controller:MechanicalVentilation,CONTROLLER MECHANICAL VENTILATION 5,ALWAYS ON DISCRETE,No,ZoneSum,1.00,1,ALL_ST=WHOLEBUILDING_FL=STORY 1_SCH=A 8,OFFICE WHOLEBUILDING VENTILATION,
 Component Sizing Information, Controller:OutdoorAir, CONTROLLER OUTDOOR AIR 1, Maximum Outdoor Air Flow Rate [m3/s], 0.51078
 Component Sizing Information, Controller:OutdoorAir, CONTROLLER OUTDOOR AIR 1, Minimum Outdoor Air Flow Rate [m3/s], 1.26503E-002
 Component Sizing Information, Coil:Cooling:DX:SingleSpeed, COILCOOLINGDXSINGLESPEED_DX, Design Size Rated Air Flow Rate [m3/s], 0.51078
 Component Sizing Information, Coil:Cooling:DX:SingleSpeed, COILCOOLINGDXSINGLESPEED_DX, Design Size Gross Rated Total Cooling Capacity [W], 8455.21906
 Component Sizing Information, Coil:Cooling:DX:SingleSpeed, COILCOOLINGDXSINGLESPEED_DX, Design Size Gross Rated Sensible Heat Ratio, 0.80066
! <DX Cooling Coil Standard Rating Information>, Component Type, Component Name, Standard Rating (Net) Cooling Capacity {W}, Standard Rated Net COP {W/W}, EER {Btu/W-h}, SEER User {Btu/W-h}, SEER Standard {Btu/W-h}, IEER {Btu/W-h}
 DX Cooling Coil Standard Rating Information, Coil:Cooling:DX:SingleSpeed, COILCOOLINGDXSINGLESPEED_DX, 8058.9, 2.51, 8.56, 9.08, 8.59, 8.70
 Component Sizing Information, Coil:Heating:Fuel, COIL HEATING GAS 1, Design Size Nominal Capacity [W], 13294.57020
 Component Sizing Information, Fan:ConstantVolume, FAN CONSTANT VOLUME 1, Design Size Maximum Flow Rate [m3/s], 0.51078
 Component Sizing Information, Controller:OutdoorAir, CONTROLLER OUTDOOR AIR 2, Maximum Outdoor Air Flow Rate [m3/s], 0.39990
 Component Sizing Information, Controller:OutdoorAir, CONTROLLER OUTDOOR AIR 2, Minimum Outdoor Air Flow Rate [m3/s], 5.25727E-003
 Component Sizing Information, Coil:Cooling:DX:SingleSpeed, COILCOOLINGDXSINGLESPEED_DX 1, Design Size Rated Air Flow Rate [m3/s], 0.39990
 Component Sizing Information, Coil:Cooling:DX:SingleSpeed, COILCOOLINGDXSINGLESPEED_DX 1, Design Size Gross Rated Total Cooling Capacity [W], 6619.77515
 Component Sizing Information, Coil:Cooling:DX:SingleSpeed, COILCOOLINGDXSINGLESPEED_DX 1, Design Size Gross Rated Sensible Heat Ratio, 0.80066
 DX Cooling Coil Standard Rating Information, Coil:Cooling:DX:SingleSpeed, COILCOOLINGDXSINGLESPEED_DX 1, 6309.5, 2.51, 8.56, 9.08, 8.59, 8.70
 Component Sizing Information, Coil:Heating:Fuel, COIL HEATING GAS 2, Design Size Nominal Capacity [W], 10202.95753
 Component Sizing Information, Fan:ConstantVolume, FAN CONSTANT VOLUME 2, Design Size Maximum Flow Rate [m3/s], 0.39990
 Component Sizing Information, Controller:OutdoorAir, CONTROLLER OUTDOOR AIR 3, Maximum Outdoor Air Flow Rate [m3/s], 0.24868
 Component Sizing Information, Controller:OutdoorAir, CONTROLLER OUTDOOR AIR 3, Minimum Outdoor Air Flow Rate [m3/s], 1.26503E-002
 Component Sizing Information, Coil:Cooling:DX:SingleSpeed, COILCOOLINGDXSINGLESPEED_DX 2, Design Size Rated Air Flow Rate [m3/s], 0.24868
 Component Sizing Information, Coil:Cooling:DX:SingleSpeed, COILCOOLINGDXSINGLESPEED_DX 2, Design Size Gross Rated Total Cooling Capacity [W], 4326.82392
 Component Sizing Information, Coil:Cooling:DX:SingleSpeed, COILCOOLINGDXSINGLESPEED_DX 2, Design Size Gross Rated Sensible Heat Ratio, 0.80079
 DX Cooling Coil Standard Rating Information, Coil:Cooling:DX:SingleSpeed, COILCOOLINGDXSINGLESPEED_DX 2, 4133.8, 2.53, 8.63, 9.16, 8.66, 8.81
 Component Sizing Information, Coil:Heating:Fuel, COIL HEATING GAS 3, Design Size Nominal Capacity [W], 6760.11229
 Component Sizing Information, Fan:ConstantVolume, FAN CONSTANT VOLUME 3, Design Size Maximum Flow Rate [m3/s], 0.24868
 Component Sizing Information, Controller:OutdoorAir, CONTROLLER OUTDOOR AIR 4, Maximum Outdoor Air Flow Rate [m3/s], 0.37564
 Component Sizing Information, Controller:OutdoorAir, CONTROLLER OUTDOOR AIR 4, Minimum Outdoor Air Flow Rate [m3/s], 5.25727E-003
 Component Sizing Information, Coil:Cooling:DX:SingleSpeed, COILCOOLINGDXSINGLESPEED_DX 3, Design Size Rated Air Flow Rate [m3/s], 0.37564
 Component Sizing Information, Coil:Cooling:DX:SingleSpeed, COILCOOLINGDXSINGLESPEED_DX 3, Design Size Gross Rated Total Cooling Capacity [W], 6218.18675
 Component Sizing Information, Coil:Cooling:DX:SingleSpeed, COILCOOLINGDXSINGLESPEED_DX 3, Design Size Gross Rated Sensible Heat Ratio, 0.80066
 DX Cooling Coil Standard Rating Information, Coil:Cooling:DX:SingleSpeed, COILCOOLINGDXSINGLESPEED_DX 3, 5926.7, 2.51, 8.56, 9.08, 8.59, 8.70
 Component Sizing Information, Coil:Heating:Fuel, COIL HEATING GAS 4, Design Size Nominal Capacity [W], 9598.10441
 Component Sizing Information, Fan:ConstantVolume, FAN CONSTANT VOLUME 4, Design Size Maximum Flow Rate [m3/s], 0.37564
 Component Sizing Information, Controller:OutdoorAir, CONTROLLER OUTDOOR AIR 5, Maximum Outdoor Air Flow Rate [m3/s], 0.63864
 Component Sizing Information, Controller:OutdoorAir, CONTROLLER OUTDOOR AIR 5, Minimum Outdoor Air Flow Rate [m3/s], 8.39520E-002
 Component Sizing Information, Coil:Cooling:DX:SingleSpeed, COILCOOLINGDXSINGLESPEED_DX 4, Design Size Rated Air Flow Rate [m3/s], 0.63864
 Component Sizing Information, Coil:Cooling:DX:SingleSpeed, COILCOOLINGDXSINGLESPEED_DX 4, Design Size Gross Rated Total Cooling Capacity [W], 12158.61737
 Component Sizing Information, Coil:Cooling:DX:SingleSpeed, COILCOOLINGDXSINGLESPEED_DX 4, Design Size Gross Rated Sensible Heat Ratio, 0.79667
 DX Cooling Coil Standard Rating Information, Coil:Cooling:DX:SingleSpeed, COILCOOLINGDXSINGLESPEED_DX 4, 11662.8, 2.56, 8.75, 9.29, 8.79, 9.01
 Component Sizing Information, Coil:Heating:Fuel, COIL HEATING GAS 5, Design Size Nominal Capacity [W], 19660.68889
 Component Sizing Information, Fan:ConstantVolume, FAN CONSTANT VOLUME 5, Design Size Maximum Flow Rate [m3/s], 0.63864
Water Heater Information,WaterHeater:Mixed,6GAL NATURALGAS WATER HEATER - 4KBTU/HR,2.2715E-002,1186.8,1.360,0.8669
 Component Sizing Information, PlantLoop, HOT WATER LOOP, Initial Maximum Loop Flow Rate [m3/s], 3.56996E-004
 Component Sizing Information, PlantLoop, HOT WATER LOOP, Initial Plant Loop Volume [m3], 4.28395E-002
 Component Sizing Information, Pump:VariableSpeed, PUMP VARIABLE SPEED 1, Initial Design Flow Rate [m3/s], 3.56996E-004
 Component Sizing Information, Pump:VariableSpeed, PUMP VARIABLE SPEED 1, Initial Design Power Consumption [W], 91.20783
 Component Sizing Information, Boiler:HotWater, PRIMARY BOILER, Initial Design Size Nominal Capacity [W], 23502.83831
 Component Sizing Information, Boiler:HotWater, PRIMARY BOILER, Initial Design Size Design Water Flow Rate [m3/s], 3.56996E-004
 Component Sizing Information, Boiler:HotWater, SECONDARY BOILER, Initial Design Size Nominal Capacity [W], 23502.83831
 Component Sizing Information, Boiler:HotWater, SECONDARY BOILER, Initial Design Size Design Water Flow Rate [m3/s], 3.56996E-004
 Component Sizing Information, PlantLoop, MAIN SERVICE WATER LOOP, Initial Maximum Loop Flow Rate [m3/s], 5.73613E-006
 Component Sizing Information, PlantLoop, MAIN SERVICE WATER LOOP, Initial Plant Loop Volume [m3], 6.88336E-004
 Component Sizing Information, Pump:ConstantSpeed, MAIN SERVICE WATER LOOP CIRCULATOR PUMP, Initial Design Flow Rate [m3/s], 5.73613E-006
 Component Sizing Information, Pump:ConstantSpeed, MAIN SERVICE WATER LOOP CIRCULATOR PUMP, Initial Design Power Consumption [W], 1.39239E-003
 Component Sizing Information, WaterHeater:Mixed, 6GAL NATURALGAS WATER HEATER - 4KBTU/HR, Initial Use Side Design Flow Rate [m3/s], 5.73613E-006
! <Environment>,Environment Name,Environment Type, Start Date, End Date, Start DayOfWeek, Duration {#days}, Source:Start DayOfWeek,  Use Daylight Saving, Use Holidays, Apply Weekend Holiday Rule,  Use Rain Values, Use Snow Values, Sky Temperature Model
! <Environment:Special Days>, Special Day Name, Special Day Type, Source, Start Date, Duration {#days}
! <Environment:Daylight Saving>, Daylight Saving Indicator, Source, Start Date, End Date
! <Environment:WarmupDays>, NumberofWarmupDays
Environment,WINDSOR INTL AP ANN CLG .4% CONDNS DB=>MWB,SizingPeriod:DesignDay,07/21,07/21,SummerDesignDay,1,N/A,N/A,N/A,N/A,N/A,N/A,Clark and Allen
Environment:Daylight Saving,No,SizingPeriod:DesignDay
Environment,WINDSOR INTL AP ANN HTG 99.6% CONDNS DB,SizingPeriod:DesignDay,01/21,01/21,WinterDesignDay,1,N/A,N/A,N/A,N/A,N/A,N/A,Clark and Allen
Environment:Daylight Saving,No,SizingPeriod:DesignDay
Environment,WINDSOR INTL AP ANN CLG .4% CONDNS DB=>MWB HVAC Sizing Pass 1,SizingPeriod:DesignDay,07/21,07/21,SummerDesignDay,1,N/A,N/A,N/A,N/A,N/A,N/A,Clark and Allen
Environment:Daylight Saving,No,SizingPeriod:DesignDay
! <Environment:Design Day Data>, Max Dry-Bulb Temp {C}, Temp Range {dC}, Temp Range Ind Type, Hum Ind Type, Hum Ind Value at Max Temp, Hum Ind Units, Pressure {Pa}, Wind Direction {deg CW from N}, Wind Speed {m/s}, Clearness, Rain, Snow
! <Environment:Design Day Misc>,DayOfYear,ASHRAE A Coeff,ASHRAE B Coeff,ASHRAE C Coeff,Solar Constant-Annual Variation,Eq of Time {minutes}, Solar Declination Angle {deg}, Solar Model
Environment:Design Day Data,32.00,9.10,DefaultMultipliers,Wetbulb,23.10,{C},99068,230,5.4,0.00,No,No
Environment:Design Day Misc,202,1084.4,0.2082,0.1365,1.0,-6.23,20.6,ASHRAETau
Environment:WarmupDays,  3
! <Tabular Report>,Style,Unit Conversion
Tabular Report,HTML,None
! <Warmup Convergence Information>,Zone Name,Environment Type/Name,Average Warmup Temperature Difference {deltaC},Std Dev Warmup Temperature Difference {deltaC},Max Temperature Pass/Fail Convergence,Min Temperature Pass/Fail Convergence,Average Warmup Load Difference {W},Std Dev Warmup Load Difference {W},Heating Load Pass/Fail Convergence,Cooling Load Pass/Fail Convergence
 Warmup Convergence Information,ALL_ST=WHOLEBUILDING_FL=STORY 1_SCH=A,SizingPeriod: WINDSOR INTL AP ANN CLG .4% CONDNS DB=>MWB HVAC Sizing Pass 1,2.8254234664E-002,0.1031774422,Pass,Pass,0.1403926157,0.6680992557,Pass,Pass
 Warmup Convergence Information,ALL_ST=WHOLEBUILDING_FL=STORY 1_SCH=A 5,SizingPeriod: WINDSOR INTL AP ANN CLG .4% CONDNS DB=>MWB HVAC Sizing Pass 1,3.6131126768E-002,0.1570707854,Pass,Pass,0.1425986530,0.4902673982,Pass,Pass
 Warmup Convergence Information,ALL_ST=WHOLEBUILDING_FL=STORY 1_SCH=A 6,SizingPeriod: WINDSOR INTL AP ANN CLG .4% CONDNS DB=>MWB HVAC Sizing Pass 1,4.2209066097E-002,0.1606613130,Pass,Pass,0.1152825630,0.5858157937,Pass,Pass
 Warmup Convergence Information,ALL_ST=WHOLEBUILDING_FL=STORY 1_SCH=A 7,SizingPeriod: WINDSOR INTL AP ANN CLG .4% CONDNS DB=>MWB HVAC Sizing Pass 1,7.3830447574E-002,0.3804379604,Pass,Pass,0.1156750286,0.3300030954,Pass,Pass
 Warmup Convergence Information,ALL_ST=WHOLEBUILDING_FL=STORY 1_SCH=A 8,SizingPeriod: WINDSOR INTL AP ANN CLG .4% CONDNS DB=>MWB HVAC Sizing Pass 1,2.3900288367E-002,7.3824722171E-002,Pass,Pass,0.7692866509,8.0528704772,Pass,Pass
Environment,WINDSOR INTL AP ANN HTG 99.6% CONDNS DB HVAC Sizing Pass 1,SizingPeriod:DesignDay,01/21,01/21,WinterDesignDay,1,N/A,N/A,N/A,N/A,N/A,N/A,Clark and Allen
Environment:Daylight Saving,No,SizingPeriod:DesignDay
Environment:Design Day Data,-15.50,0.00,DefaultMultipliers,Wetbulb,-15.50,{C},99068,240,5.1,0.00,No,No
Environment:Design Day Misc, 21,1229.0,0.1415,5.7310E-002,1.0,-11.15,-20.1,ASHRAEClearSky
Environment:WarmupDays,  2
 Warmup Convergence Information,ALL_ST=WHOLEBUILDING_FL=STORY 1_SCH=A,SizingPeriod: WINDSOR INTL AP ANN HTG 99.6% CONDNS DB HVAC Sizing Pass 1,5.5562174751E-002,0.3570455887,Pass,Pass,2.1049354424E-002,8.9328983273E-002,Pass,Pass
 Warmup Convergence Information,ALL_ST=WHOLEBUILDING_FL=STORY 1_SCH=A 5,SizingPeriod: WINDSOR INTL AP ANN HTG 99.6% CONDNS DB HVAC Sizing Pass 1,5.5559219841E-002,0.3407838937,Pass,Pass,2.0616428316E-002,9.0120166578E-002,Pass,Pass
 Warmup Convergence Information,ALL_ST=WHOLEBUILDING_FL=STORY 1_SCH=A 6,SizingPeriod: WINDSOR INTL AP ANN HTG 99.6% CONDNS DB HVAC Sizing Pass 1,5.5567403363E-002,0.3668729102,Pass,Pass,2.1350318990E-002,9.0119591804E-002,Pass,Pass
 Warmup Convergence Information,ALL_ST=WHOLEBUILDING_FL=STORY 1_SCH=A 7,SizingPeriod: WINDSOR INTL AP ANN HTG 99.6% CONDNS DB HVAC Sizing Pass 1,5.5559422515E-002,0.3425711362,Pass,Pass,2.0972099354E-002,9.1965194985E-002,Pass,Pass
 Warmup Convergence Information,ALL_ST=WHOLEBUILDING_FL=STORY 1_SCH=A 8,SizingPeriod: WINDSOR INTL AP ANN HTG 99.6% CONDNS DB HVAC Sizing Pass 1,5.5562891968E-002,0.3117764133,Pass,Pass,5.7967684897E-002,0.1635575453,Pass,Pass
Environment,WINDSOR INTL AP ANN CLG .4% CONDNS DB=>MWB,SizingPeriod:DesignDay,07/21,07/21,SummerDesignDay,1,N/A,N/A,N/A,N/A,N/A,N/A,Clark and Allen
Environment:Daylight Saving,No,SizingPeriod:DesignDay
Environment:Design Day Data,32.00,9.10,DefaultMultipliers,Wetbulb,23.10,{C},99068,230,5.4,0.00,No,No
Environment:Design Day Misc,202,1084.4,0.2082,0.1365,1.0,-6.23,20.6,ASHRAETau
 Component Sizing Information, PlantLoop, HOT WATER LOOP, Maximum Loop Flow Rate [m3/s], 3.56996E-004
 Component Sizing Information, PlantLoop, HOT WATER LOOP, Plant Loop Volume [m3], 4.28395E-002
 Component Sizing Information, PlantLoop, MAIN SERVICE WATER LOOP, Maximum Loop Flow Rate [m3/s], 5.73613E-006
 Component Sizing Information, PlantLoop, MAIN SERVICE WATER LOOP, Plant Loop Volume [m3], 6.88336E-004
 Component Sizing Information, Boiler:HotWater, PRIMARY BOILER, Design Size Nominal Capacity [W], 23502.83831
 Component Sizing Information, Boiler:HotWater, PRIMARY BOILER, Design Size Design Water Flow Rate [m3/s], 3.56996E-004
 Component Sizing Information, Boiler:HotWater, SECONDARY BOILER, Design Size Nominal Capacity [W], 23502.83831
 Component Sizing Information, Boiler:HotWater, SECONDARY BOILER, Design Size Design Water Flow Rate [m3/s], 3.56996E-004
 Component Sizing Information, Pump:VariableSpeed, PUMP VARIABLE SPEED 1, Design Flow Rate [m3/s], 3.56996E-004
 Component Sizing Information, Pump:VariableSpeed, PUMP VARIABLE SPEED 1, Design Power Consumption [W], 91.20783
 Component Sizing Information, WaterHeater:Mixed, 6GAL NATURALGAS WATER HEATER - 4KBTU/HR, Use Side Design Flow Rate [m3/s], 5.73613E-006
 Component Sizing Information, Pump:ConstantSpeed, MAIN SERVICE WATER LOOP CIRCULATOR PUMP, Design Flow Rate [m3/s], 5.73613E-006
 Component Sizing Information, Pump:ConstantSpeed, MAIN SERVICE WATER LOOP CIRCULATOR PUMP, Design Power Consumption [W], 1.39239E-003
Environment,WINDSOR INTL AP ANN HTG 99.6% CONDNS DB,SizingPeriod:DesignDay,01/21,01/21,WinterDesignDay,1,N/A,N/A,N/A,N/A,N/A,N/A,Clark and Allen
Environment:Daylight Saving,No,SizingPeriod:DesignDay
Environment:Design Day Data,-15.50,0.00,DefaultMultipliers,Wetbulb,-15.50,{C},99068,240,5.1,0.00,No,No
Environment:Design Day Misc, 21,1229.0,0.1415,5.7310E-002,1.0,-11.15,-20.1,ASHRAEClearSky
Environment,WINDSOR INTL AP ANN CLG .4% CONDNS DB=>MWB HVAC Sizing Pass 1,SizingPeriod:DesignDay,07/21,07/21,SummerDesignDay,1,N/A,N/A,N/A,N/A,N/A,N/A,Clark and Allen
Environment:Daylight Saving,No,SizingPeriod:DesignDay
Environment:Design Day Data,32.00,9.10,DefaultMultipliers,Wetbulb,23.10,{C},99068,230,5.4,0.00,No,No
Environment:Design Day Misc,202,1084.4,0.2082,0.1365,1.0,-6.23,20.6,ASHRAETau
Environment,WINDSOR INTL AP ANN HTG 99.6% CONDNS DB HVAC Sizing Pass 1,SizingPeriod:DesignDay,01/21,01/21,WinterDesignDay,1,N/A,N/A,N/A,N/A,N/A,N/A,Clark and Allen
Environment:Daylight Saving,No,SizingPeriod:DesignDay
Environment:Design Day Data,-15.50,0.00,DefaultMultipliers,Wetbulb,-15.50,{C},99068,240,5.1,0.00,No,No
Environment:Design Day Misc, 21,1229.0,0.1415,5.7310E-002,1.0,-11.15,-20.1,ASHRAEClearSky
Environment,WINDSOR INTL AP ANN CLG .4% CONDNS DB=>MWB,SizingPeriod:DesignDay,07/21,07/21,SummerDesignDay,1,N/A,N/A,N/A,N/A,N/A,N/A,Clark and Allen
Environment:Daylight Saving,No,SizingPeriod:DesignDay
Environment:Design Day Data,32.00,9.10,DefaultMultipliers,Wetbulb,23.10,{C},99068,230,5.4,0.00,No,No
Environment:Design Day Misc,202,1084.4,0.2082,0.1365,1.0,-6.23,20.6,ASHRAETau
Environment:WarmupDays,  3
 Warmup Convergence Information,ALL_ST=WHOLEBUILDING_FL=STORY 1_SCH=A,SizingPeriod: WINDSOR INTL AP ANN CLG .4% CONDNS DB=>MWB,2.8254234664E-002,0.1031774422,Pass,Pass,0.1403926157,0.6680992557,Pass,Pass
 Warmup Convergence Information,ALL_ST=WHOLEBUILDING_FL=STORY 1_SCH=A 5,SizingPeriod: WINDSOR INTL AP ANN CLG .4% CONDNS DB=>MWB,3.6131126768E-002,0.1570707854,Pass,Pass,0.1425986530,0.4902673982,Pass,Pass
 Warmup Convergence Information,ALL_ST=WHOLEBUILDING_FL=STORY 1_SCH=A 6,SizingPeriod: WINDSOR INTL AP ANN CLG .4% CONDNS DB=>MWB,4.2209066097E-002,0.1606613130,Pass,Pass,0.1152825630,0.5858157937,Pass,Pass
 Warmup Convergence Information,ALL_ST=WHOLEBUILDING_FL=STORY 1_SCH=A 7,SizingPeriod: WINDSOR INTL AP ANN CLG .4% CONDNS DB=>MWB,7.3830447574E-002,0.3804379604,Pass,Pass,0.1156750286,0.3300030954,Pass,Pass
 Warmup Convergence Information,ALL_ST=WHOLEBUILDING_FL=STORY 1_SCH=A 8,SizingPeriod: WINDSOR INTL AP ANN CLG .4% CONDNS DB=>MWB,2.3900288367E-002,7.3824722171E-002,Pass,Pass,0.7692866509,8.0528704772,Pass,Pass
Environment,WINDSOR INTL AP ANN HTG 99.6% CONDNS DB,SizingPeriod:DesignDay,01/21,01/21,WinterDesignDay,1,N/A,N/A,N/A,N/A,N/A,N/A,Clark and Allen
Environment:Daylight Saving,No,SizingPeriod:DesignDay
Environment:Design Day Data,-15.50,0.00,DefaultMultipliers,Wetbulb,-15.50,{C},99068,240,5.1,0.00,No,No
Environment:Design Day Misc, 21,1229.0,0.1415,5.7310E-002,1.0,-11.15,-20.1,ASHRAEClearSky
Environment:WarmupDays,  2
 Warmup Convergence Information,ALL_ST=WHOLEBUILDING_FL=STORY 1_SCH=A,SizingPeriod: WINDSOR INTL AP ANN HTG 99.6% CONDNS DB,5.5562174751E-002,0.3570455887,Pass,Pass,2.1049354424E-002,8.9328983273E-002,Pass,Pass
 Warmup Convergence Information,ALL_ST=WHOLEBUILDING_FL=STORY 1_SCH=A 5,SizingPeriod: WINDSOR INTL AP ANN HTG 99.6% CONDNS DB,5.5559219841E-002,0.3407838937,Pass,Pass,2.0616428316E-002,9.0120166578E-002,Pass,Pass
 Warmup Convergence Information,ALL_ST=WHOLEBUILDING_FL=STORY 1_SCH=A 6,SizingPeriod: WINDSOR INTL AP ANN HTG 99.6% CONDNS DB,5.5567403363E-002,0.3668729102,Pass,Pass,2.1350318990E-002,9.0119591804E-002,Pass,Pass
 Warmup Convergence Information,ALL_ST=WHOLEBUILDING_FL=STORY 1_SCH=A 7,SizingPeriod: WINDSOR INTL AP ANN HTG 99.6% CONDNS DB,5.5559422515E-002,0.3425711362,Pass,Pass,2.0972099354E-002,9.1965194985E-002,Pass,Pass
 Warmup Convergence Information,ALL_ST=WHOLEBUILDING_FL=STORY 1_SCH=A 8,SizingPeriod: WINDSOR INTL AP ANN HTG 99.6% CONDNS DB,5.5562891968E-002,0.3117764133,Pass,Pass,5.7967684897E-002,0.1635575453,Pass,Pass
Environment,WINDSOR INTL AP ANN CLG .4% CONDNS DB=>MWB HVAC Sizing Pass 1,SizingPeriod:DesignDay,07/21,07/21,SummerDesignDay,1,N/A,N/A,N/A,N/A,N/A,N/A,Clark and Allen
Environment:Daylight Saving,No,SizingPeriod:DesignDay
Environment,WINDSOR INTL AP ANN HTG 99.6% CONDNS DB HVAC Sizing Pass 1,SizingPeriod:DesignDay,01/21,01/21,WinterDesignDay,1,N/A,N/A,N/A,N/A,N/A,N/A,Clark and Allen
Environment:Daylight Saving,No,SizingPeriod:DesignDay
! <Program Control Information:Threads/Parallel Sims>, Threading Supported,Maximum Number of Threads, Env Set Threads (OMP_NUM_THREADS), EP Env Set Threads (EP_OMP_NUM_THREADS), IDF Set Threads, Number of Threads Used (Interior Radiant Exchange), Number Nominal Surfaces, Number Parallel Sims
Program Control:Threads/Parallel Sims, No,1, N/A, N/A, N/A, N/A, N/A, N/A
End of Data
