{
   "completed_at" : "20220518T131226Z",
   "completed_status" : "Success",
   "created_at" : "20220518T131218Z",
   "current_step" : 0,
   "eplusout_err" : "Program Version,EnergyPlus, Version 9.5.0-de239b2e5f, YMD=2022.05.18 09:12,\n   ************* Beginning Zone Sizing Calculations\n   ** Warning ** ProcessScheduleInput: Schedule:Day:Interval=\"SCHEDULE DAY 1\", Blank Schedule Type Limits Name input -- will not be validated.\n   ** Warning ** ProcessScheduleInput: Schedule:Day:Interval=\"SCHEDULE DAY 23\", Blank Schedule Type Limits Name input -- will not be validated.\n   ** Warning ** ProcessScheduleInput: Schedule:Day:Interval=\"SCHEDULE DAY 24\", Blank Schedule Type Limits Name input -- will not be validated.\n   ** Warning ** ProcessScheduleInput: Schedule:Day:Interval=\"SCHEDULE DAY 25\", Blank Schedule Type Limits Name input -- will not be validated.\n   ** Warning ** ProcessScheduleInput: Schedule:Day:Interval=\"SCHEDULE DAY 26\", Blank Schedule Type Limits Name input -- will not be validated.\n   ** Warning ** ProcessScheduleInput: Schedule:Day:Interval=\"SCHEDULE DAY 27\", Blank Schedule Type Limits Name input -- will not be validated.\n   ** Warning ** ProcessScheduleInput: Schedule:Day:Interval=\"SCHEDULE DAY 28\", Blank Schedule Type Limits Name input -- will not be validated.\n   ** Warning ** ProcessScheduleInput: Schedule:Day:Interval=\"SCHEDULE DAY 29\", Blank Schedule Type Limits Name input -- will not be validated.\n   ** Warning ** ProcessScheduleInput: Schedule:Day:Interval=\"SCHEDULE DAY 3\", Blank Schedule Type Limits Name input -- will not be validated.\n   ** Warning ** ProcessScheduleInput: Schedule:Day:Interval=\"SCHEDULE DAY 30\", Blank Schedule Type Limits Name input -- will not be validated.\n   ** Warning ** ProcessScheduleInput: Schedule:Day:Interval=\"SCHEDULE DAY 31\", Blank Schedule Type Limits Name input -- will not be validated.\n   ** Warning ** ProcessScheduleInput: Schedule:Day:Interval=\"SCHEDULE DAY 32\", Blank Schedule Type Limits Name input -- will not be validated.\n   ** Warning ** ProcessScheduleInput: Schedule:Day:Interval=\"SCHEDULE DAY 4\", Blank Schedule Type Limits Name input -- will not be validated.\n   ** Warning ** ProcessScheduleInput: Schedule:Day:Interval=\"SCHEDULE DAY 5\", Blank Schedule Type Limits Name input -- will not be validated.\n   ** Warning ** ProcessScheduleInput: Schedule:Day:Interval=\"SCHEDULE DAY 6\", Blank Schedule Type Limits Name input -- will not be validated.\n   ** Warning ** ProcessScheduleInput: Schedule:Day:Interval=\"SCHEDULE DAY 7\", Blank Schedule Type Limits Name input -- will not be validated.\n   ** Warning ** ProcessScheduleInput: Schedule:Constant=\"ALWAYS OFF DISCRETE\", Blank Schedule Type Limits Name input -- will not be validated.\n   ** Warning ** ProcessScheduleInput: Schedule:Constant=\"ALWAYS ON CONTINUOUS\", Blank Schedule Type Limits Name input -- will not be validated.\n   ** Warning ** CheckUsedConstructions: There are 30 nominally unused constructions in input.\n   **   ~~~   ** For explicit details on each unused construction, use Output:Diagnostics,DisplayExtraWarnings;\n   ** Warning ** GetInternalHeatGains: People=\"OFFICE WHOLEBUILDING PEOPLE\" has comfort related schedules but no thermal comfort model selected.\n   **   ~~~   ** If schedules are specified for air velocity, clothing insulation, and/or work efficiency but no thermal comfort\n   **   ~~~   ** thermal comfort model is selected, the schedules will be listed as unused schedules in the .err file.\n   **   ~~~   ** To avoid these errors, select a valid thermal comfort model or eliminate these schedules in the PEOPLE input.\n   ** Warning ** GetInternalHeatGains: People=\"OFFICE WHOLEBUILDING PEOPLE\" has comfort related schedules but no thermal comfort model selected.\n   **   ~~~   ** If schedules are specified for air velocity, clothing insulation, and/or work efficiency but no thermal comfort\n   **   ~~~   ** thermal comfort model is selected, the schedules will be listed as unused schedules in the .err file.\n   **   ~~~   ** To avoid these errors, select a valid thermal comfort model or eliminate these schedules in the PEOPLE input.\n   ** Warning ** GetInternalHeatGains: People=\"OFFICE WHOLEBUILDING PEOPLE\" has comfort related schedules but no thermal comfort model selected.\n   **   ~~~   ** If schedules are specified for air velocity, clothing insulation, and/or work efficiency but no thermal comfort\n   **   ~~~   ** thermal comfort model is selected, the schedules will be listed as unused schedules in the .err file.\n   **   ~~~   ** To avoid these errors, select a valid thermal comfort model or eliminate these schedules in the PEOPLE input.\n   ** Warning ** GetInternalHeatGains: People=\"OFFICE WHOLEBUILDING PEOPLE\" has comfort related schedules but no thermal comfort model selected.\n   **   ~~~   ** If schedules are specified for air velocity, clothing insulation, and/or work efficiency but no thermal comfort\n   **   ~~~   ** thermal comfort model is selected, the schedules will be listed as unused schedules in the .err file.\n   **   ~~~   ** To avoid these errors, select a valid thermal comfort model or eliminate these schedules in the PEOPLE input.\n   ** Warning ** GetInternalHeatGains: People=\"OFFICE WHOLEBUILDING PEOPLE\" has comfort related schedules but no thermal comfort model selected.\n   **   ~~~   ** If schedules are specified for air velocity, clothing insulation, and/or work efficiency but no thermal comfort\n   **   ~~~   ** thermal comfort model is selected, the schedules will be listed as unused schedules in the .err file.\n   **   ~~~   ** To avoid these errors, select a valid thermal comfort model or eliminate these schedules in the PEOPLE input.\n   ** Warning ** Output:Meter: invalid Key Name=\"NATURALGAS:FACILITY\" - not found.\n   ** Warning ** Output:Meter:MeterFileOnly: invalid Key Name=\"NATURALGAS:FACILITY\" - not found.\n   ** Warning ** Output:Meter:MeterFileOnly requested for \"Electricity:Facility\" (TimeStep), already on \"Output:Meter\". Will report to both eplusout.eso and eplusout.mtr\n   ************* Testing Individual Branch Integrity\n   ************* All Branches passed integrity testing\n   ************* Testing Individual Supply Air Path Integrity\n   ************* All Supply Air Paths passed integrity testing\n   ************* Testing Individual Return Air Path Integrity\n   ************* All Return Air Paths passed integrity testing\n   ************* No node connection errors were found.\n   ** Warning ** Output:Table:Monthly requested with SimulationControl Run Simulation for Weather File Run Periods set to No so Output:Table:Monthly will not be generated\n   ************* Beginning Simulation\n   ************* Simulation Error Summary *************\n   ************* There are 8 unused objects in input.\n   ************* Use Output:Diagnostics,DisplayUnusedObjects; to see them.\n   ************* There are 6 unused schedules in input.\n   ************* There are 6 unused week schedules in input.\n   ************* There are 24 unused day schedules in input.\n   ************* Use Output:Diagnostics,DisplayUnusedSchedules; to see them.\n   *************\n   ************* ===== Final Error Summary =====\n   ************* The following error categories occurred.  Consider correcting or noting.\n   ************* Nominally Unused Constructions\n   ************* ..The nominally unused constructions warning is provided to alert you to potential conditions that can cause\n   ************* ..extra time during simulation. Each construction is calculated by the algorithm indicated in the HeatBalanceAlgorithm\n   ************* ..object. You may remove the constructions indicated (when you use the DisplayExtraWarnings option).\n   *************\n   ************* EnergyPlus Warmup Error Summary. During Warmup: 0 Warning; 0 Severe Errors.\n   ************* EnergyPlus Sizing Error Summary. During Sizing: 24 Warning; 0 Severe Errors.\n   ************* EnergyPlus Completed Successfully-- 28 Warning; 0 Severe Errors; Elapsed Time=00hr 00min  1.55sec\n",
   "file_paths" : 
   [
      "D:/All_btap/OpenStudioMeasures_Aug30_2021_PATFinalizationScript/openstudio-measures/measures_10Feb/nrc_create_from_existing_osm_file/tests/autozone/generated_files",
      "./files",
      "./weather",
      "../../files",
      "../../weather",
      "./"
   ],
   "hash" : "B59E60A7",
   "seed_file" : "in.osm",
   "started_at" : "20220518T131221Z",
   "steps" : [],
   "updated_at" : "20220518T131226Z",
   "weather_file" : "in.epw"
}