{
  "completed_at": "20211224T151851Z",
  "completed_status": "Success",
  "created_at": "2021-12-24 15:17:19 +0000",
  "current_step": 3,
  "description": "",
  "eplusout_err": "Program Version,EnergyPlus, Version 9.3.0-baff08990c, YMD=2021.12.24 15:18,\n   ************* Beginning Zone Sizing Calculations\n   ** Warning ** ProcessScheduleInput: Schedule:Day:Interval=\"ECONOMIZER MAX OA FRACTION 100 PCT DEFAULT\", Blank Schedule Type Limits Name input -- will not be validated.\n   ** Warning ** ProcessScheduleInput: Schedule:Day:Interval=\"SCHEDULE DAY 1\", Blank Schedule Type Limits Name input -- will not be validated.\n   ** Warning ** ProcessScheduleInput: Schedule:Day:Interval=\"SCHEDULE DAY 10\", Blank Schedule Type Limits Name input -- will not be validated.\n   ** Warning ** ProcessScheduleInput: Schedule:Day:Interval=\"SCHEDULE DAY 11\", Blank Schedule Type Limits Name input -- will not be validated.\n   ** Warning ** ProcessScheduleInput: Schedule:Day:Interval=\"SCHEDULE DAY 12\", Blank Schedule Type Limits Name input -- will not be validated.\n   ** Warning ** ProcessScheduleInput: Schedule:Day:Interval=\"SCHEDULE DAY 13\", Blank Schedule Type Limits Name input -- will not be validated.\n   ** Warning ** ProcessScheduleInput: Schedule:Day:Interval=\"SCHEDULE DAY 14\", Blank Schedule Type Limits Name input -- will not be validated.\n   ** Warning ** ProcessScheduleInput: Schedule:Day:Interval=\"SCHEDULE DAY 15\", Blank Schedule Type Limits Name input -- will not be validated.\n   ** Warning ** ProcessScheduleInput: Schedule:Day:Interval=\"SCHEDULE DAY 16\", Blank Schedule Type Limits Name input -- will not be validated.\n   ** Warning ** ProcessScheduleInput: Schedule:Day:Interval=\"SCHEDULE DAY 17\", Blank Schedule Type Limits Name input -- will not be validated.\n   ** Warning ** ProcessScheduleInput: Schedule:Day:Interval=\"SCHEDULE DAY 18\", Blank Schedule Type Limits Name input -- will not be validated.\n   ** Warning ** ProcessScheduleInput: Schedule:Day:Interval=\"SCHEDULE DAY 19\", Blank Schedule Type Limits Name input -- will not be validated.\n   ** Warning ** ProcessScheduleInput: Schedule:Day:Interval=\"SCHEDULE DAY 2\", Blank Schedule Type Limits Name input -- will not be validated.\n   ** Warning ** ProcessScheduleInput: Schedule:Day:Interval=\"SCHEDULE DAY 20\", Blank Schedule Type Limits Name input -- will not be validated.\n   ** Warning ** ProcessScheduleInput: Schedule:Day:Interval=\"SCHEDULE DAY 21\", Blank Schedule Type Limits Name input -- will not be validated.\n   ** Warning ** ProcessScheduleInput: Schedule:Day:Interval=\"SCHEDULE DAY 22\", Blank Schedule Type Limits Name input -- will not be validated.\n   ** Warning ** ProcessScheduleInput: Schedule:Day:Interval=\"SCHEDULE DAY 23\", Blank Schedule Type Limits Name input -- will not be validated.\n   ** Warning ** ProcessScheduleInput: Schedule:Day:Interval=\"SCHEDULE DAY 24\", Blank Schedule Type Limits Name input -- will not be validated.\n   ** Warning ** ProcessScheduleInput: Schedule:Day:Interval=\"SCHEDULE DAY 25\", Blank Schedule Type Limits Name input -- will not be validated.\n   ** Warning ** ProcessScheduleInput: Schedule:Day:Interval=\"SCHEDULE DAY 26\", Blank Schedule Type Limits Name input -- will not be validated.\n   ** Warning ** ProcessScheduleInput: Schedule:Day:Interval=\"SCHEDULE DAY 27\", Blank Schedule Type Limits Name input -- will not be validated.\n   ** Warning ** ProcessScheduleInput: Schedule:Day:Interval=\"SCHEDULE DAY 28\", Blank Schedule Type Limits Name input -- will not be validated.\n   ** Warning ** ProcessScheduleInput: Schedule:Day:Interval=\"SCHEDULE DAY 29\", Blank Schedule Type Limits Name input -- will not be validated.\n   ** Warning ** ProcessScheduleInput: Schedule:Day:Interval=\"SCHEDULE DAY 5\", Blank Schedule Type Limits Name input -- will not be validated.\n   ** Warning ** ProcessScheduleInput: Schedule:Day:Interval=\"SCHEDULE DAY 6\", Blank Schedule Type Limits Name input -- will not be validated.\n   ** Warning ** ProcessScheduleInput: Schedule:Day:Interval=\"SCHEDULE DAY 7\", Blank Schedule Type Limits Name input -- will not be validated.\n   ** Warning ** ProcessScheduleInput: Schedule:Day:Interval=\"SCHEDULE DAY 8\", Blank Schedule Type Limits Name input -- will not be validated.\n   ** Warning ** ProcessScheduleInput: Schedule:Day:Interval=\"SCHEDULE DAY 9\", Blank Schedule Type Limits Name input -- will not be validated.\n   ** Warning ** ProcessScheduleInput: Schedule:Year=\"ECONOMIZER MAX OA FRACTION 100 PCT\", Blank Schedule Type Limits Name input -- will not be validated.\n   ** Warning ** ProcessScheduleInput: Schedule:Year=\"SCHEDULE RULESET 10\", Blank Schedule Type Limits Name input -- will not be validated.\n   ** Warning ** ProcessScheduleInput: Schedule:Year=\"SCHEDULE RULESET 11\", Blank Schedule Type Limits Name input -- will not be validated.\n   ** Warning ** ProcessScheduleInput: Schedule:Year=\"SCHEDULE RULESET 12\", Blank Schedule Type Limits Name input -- will not be validated.\n   ** Warning ** ProcessScheduleInput: Schedule:Year=\"SCHEDULE RULESET 13\", Blank Schedule Type Limits Name input -- will not be validated.\n   ** Warning ** ProcessScheduleInput: Schedule:Year=\"SCHEDULE RULESET 14\", Blank Schedule Type Limits Name input -- will not be validated.\n   ** Warning ** ProcessScheduleInput: Schedule:Year=\"SCHEDULE RULESET 15\", Blank Schedule Type Limits Name input -- will not be validated.\n   ** Warning ** ProcessScheduleInput: Schedule:Year=\"SCHEDULE RULESET 16\", Blank Schedule Type Limits Name input -- will not be validated.\n   ** Warning ** ProcessScheduleInput: Schedule:Year=\"SCHEDULE RULESET 17\", Blank Schedule Type Limits Name input -- will not be validated.\n   ** Warning ** ProcessScheduleInput: Schedule:Year=\"SCHEDULE RULESET 3\", Blank Schedule Type Limits Name input -- will not be validated.\n   ** Warning ** ProcessScheduleInput: Schedule:Year=\"SCHEDULE RULESET 4\", Blank Schedule Type Limits Name input -- will not be validated.\n   ** Warning ** ProcessScheduleInput: Schedule:Year=\"SCHEDULE RULESET 5\", Blank Schedule Type Limits Name input -- will not be validated.\n   ** Warning ** ProcessScheduleInput: Schedule:Year=\"SCHEDULE RULESET 6\", Blank Schedule Type Limits Name input -- will not be validated.\n   ** Warning ** ProcessScheduleInput: Schedule:Year=\"SCHEDULE RULESET 7\", Blank Schedule Type Limits Name input -- will not be validated.\n   ** Warning ** ProcessScheduleInput: Schedule:Year=\"SCHEDULE RULESET 8\", Blank Schedule Type Limits Name input -- will not be validated.\n   ** Warning ** ProcessScheduleInput: Schedule:Year=\"SCHEDULE RULESET 9\", Blank Schedule Type Limits Name input -- will not be validated.\n   ** Warning ** ProcessScheduleInput: Schedule:Constant=\"ALWAYS OFF DISCRETE\", Blank Schedule Type Limits Name input -- will not be validated.\n   ** Warning ** ProcessScheduleInput: Schedule:Constant=\"ALWAYS ON CONTINUOUS\", Blank Schedule Type Limits Name input -- will not be validated.\n   ** Warning ** CheckUsedConstructions: There are 28 nominally unused constructions in input.\n   **   ~~~   ** For explicit details on each unused construction, use Output:Diagnostics,DisplayExtraWarnings;\n   ** Warning ** GetInternalHeatGains: People Combination of ZoneList and Object Name generate a name too long.\n   **   ~~~   ** Object Name=\"SPACE FUNCTION OFFICE ENCLOSED <= 25 M2 PEOPLE\".\n   **   ~~~   ** ZoneList/Zone Name=\"ALL_ST=OFFICE ENCLOSED <= 25 M2_FL=BUILDING STORY 1_SCH=A\".\n   **   ~~~   ** Item length=[103] > Maximum Length=[100]. You may need to shorten the names.\n   **   ~~~   ** Shortening the Object Name by [6] characters will assure uniqueness for this ZoneList.\n   **   ~~~   ** name that will be used (may be needed in reporting)=\"ALL_ST=OFFICE ENCLOSED <= 25 M2_FL=BUILDING STORY 1_SCH=A SPACE FUNCTION OFFICE ENCLOSED <= 25 M2 PEOPLE\".\n   ** Warning ** GetInternalHeatGains: People=\"SPACE FUNCTION OFFICE ENCLOSED <= 25 M2 PEOPLE\" has comfort related schedules but no thermal comfort model selected.\n   **   ~~~   ** If schedules are specified for air velocity, clothing insulation, and/or work efficiency but no thermal comfort\n   **   ~~~   ** thermal comfort model is selected, the schedules will be listed as unused schedules in the .err file.\n   **   ~~~   ** To avoid these errors, select a valid thermal comfort model or eliminate these schedules in the PEOPLE input.\n   ** Warning ** GetInternalHeatGains: People Combination of ZoneList and Object Name generate a name too long.\n   **   ~~~   ** Object Name=\"SPACE FUNCTION OFFICE ENCLOSED <= 25 M2 PEOPLE\".\n   **   ~~~   ** ZoneList/Zone Name=\"ALL_ST=OFFICE ENCLOSED <= 25 M2_FL=BUILDING STORY 1_SCH=A 1\".\n   **   ~~~   ** Item length=[105] > Maximum Length=[100]. You may need to shorten the names.\n   **   ~~~   ** Shortening the Object Name by [6] characters will assure uniqueness for this ZoneList.\n   **   ~~~   ** name that will be used (may be needed in reporting)=\"ALL_ST=OFFICE ENCLOSED <= 25 M2_FL=BUILDING STORY 1_SCH=A 1 SPACE FUNCTION OFFICE ENCLOSED <= 25 M2 PEOPLE\".\n   ** Warning ** GetInternalHeatGains: People=\"SPACE FUNCTION OFFICE ENCLOSED <= 25 M2 PEOPLE\" has comfort related schedules but no thermal comfort model selected.\n   **   ~~~   ** If schedules are specified for air velocity, clothing insulation, and/or work efficiency but no thermal comfort\n   **   ~~~   ** thermal comfort model is selected, the schedules will be listed as unused schedules in the .err file.\n   **   ~~~   ** To avoid these errors, select a valid thermal comfort model or eliminate these schedules in the PEOPLE input.\n   ** Warning ** GetInternalHeatGains: People Combination of ZoneList and Object Name generate a name too long.\n   **   ~~~   ** Object Name=\"SPACE FUNCTION OFFICE ENCLOSED <= 25 M2 PEOPLE\".\n   **   ~~~   ** ZoneList/Zone Name=\"ALL_ST=OFFICE ENCLOSED <= 25 M2_FL=BUILDING STORY 1_SCH=A 2\".\n   **   ~~~   ** Item length=[105] > Maximum Length=[100]. You may need to shorten the names.\n   **   ~~~   ** Shortening the Object Name by [6] characters will assure uniqueness for this ZoneList.\n   **   ~~~   ** name that will be used (may be needed in reporting)=\"ALL_ST=OFFICE ENCLOSED <= 25 M2_FL=BUILDING STORY 1_SCH=A 2 SPACE FUNCTION OFFICE ENCLOSED <= 25 M2 PEOPLE\".\n   ** Warning ** GetInternalHeatGains: People=\"SPACE FUNCTION OFFICE ENCLOSED <= 25 M2 PEOPLE\" has comfort related schedules but no thermal comfort model selected.\n   **   ~~~   ** If schedules are specified for air velocity, clothing insulation, and/or work efficiency but no thermal comfort\n   **   ~~~   ** thermal comfort model is selected, the schedules will be listed as unused schedules in the .err file.\n   **   ~~~   ** To avoid these errors, select a valid thermal comfort model or eliminate these schedules in the PEOPLE input.\n   ** Warning ** GetInternalHeatGains: People Combination of ZoneList and Object Name generate a name too long.\n   **   ~~~   ** Object Name=\"SPACE FUNCTION OFFICE ENCLOSED <= 25 M2 PEOPLE\".\n   **   ~~~   ** ZoneList/Zone Name=\"ALL_ST=OFFICE ENCLOSED <= 25 M2_FL=BUILDING STORY 1_SCH=A 3\".\n   **   ~~~   ** Item length=[105] > Maximum Length=[100]. You may need to shorten the names.\n   **   ~~~   ** Shortening the Object Name by [6] characters will assure uniqueness for this ZoneList.\n   **   ~~~   ** name that will be used (may be needed in reporting)=\"ALL_ST=OFFICE ENCLOSED <= 25 M2_FL=BUILDING STORY 1_SCH=A 3 SPACE FUNCTION OFFICE ENCLOSED <= 25 M2 PEOPLE\".\n   ** Warning ** GetInternalHeatGains: People=\"SPACE FUNCTION OFFICE ENCLOSED <= 25 M2 PEOPLE\" has comfort related schedules but no thermal comfort model selected.\n   **   ~~~   ** If schedules are specified for air velocity, clothing insulation, and/or work efficiency but no thermal comfort\n   **   ~~~   ** thermal comfort model is selected, the schedules will be listed as unused schedules in the .err file.\n   **   ~~~   ** To avoid these errors, select a valid thermal comfort model or eliminate these schedules in the PEOPLE input.\n   ** Warning ** GetInternalHeatGains: People Combination of ZoneList and Object Name generate a name too long.\n   **   ~~~   ** Object Name=\"SPACE FUNCTION OFFICE ENCLOSED <= 25 M2 PEOPLE\".\n   **   ~~~   ** ZoneList/Zone Name=\"ALL_ST=OFFICE ENCLOSED <= 25 M2_FL=BUILDING STORY 1_SCH=A 4\".\n   **   ~~~   ** Item length=[105] > Maximum Length=[100]. You may need to shorten the names.\n   **   ~~~   ** Shortening the Object Name by [6] characters will assure uniqueness for this ZoneList.\n   **   ~~~   ** name that will be used (may be needed in reporting)=\"ALL_ST=OFFICE ENCLOSED <= 25 M2_FL=BUILDING STORY 1_SCH=A 4 SPACE FUNCTION OFFICE ENCLOSED <= 25 M2 PEOPLE\".\n   ** Warning ** GetInternalHeatGains: People=\"SPACE FUNCTION OFFICE ENCLOSED <= 25 M2 PEOPLE\" has comfort related schedules but no thermal comfort model selected.\n   **   ~~~   ** If schedules are specified for air velocity, clothing insulation, and/or work efficiency but no thermal comfort\n   **   ~~~   ** thermal comfort model is selected, the schedules will be listed as unused schedules in the .err file.\n   **   ~~~   ** To avoid these errors, select a valid thermal comfort model or eliminate these schedules in the PEOPLE input.\n   ** Warning ** GetInternalHeatGains: Lights Combination of ZoneList and Object Name generate a name too long.\n   **   ~~~   ** Object Name=\"SPACE FUNCTION OFFICE ENCLOSED <= 25 M2 LIGHTS\".\n   **   ~~~   ** ZoneList/Zone Name=\"ALL_ST=OFFICE ENCLOSED <= 25 M2_FL=BUILDING STORY 1_SCH=A\".\n   **   ~~~   ** Item length=[103] > Maximum Length=[100]. You may need to shorten the names.\n   **   ~~~   ** Shortening the Object Name by [6] characters will assure uniqueness for this ZoneList.\n   **   ~~~   ** name that will be used (may be needed in reporting)=\"ALL_ST=OFFICE ENCLOSED <= 25 M2_FL=BUILDING STORY 1_SCH=A SPACE FUNCTION OFFICE ENCLOSED <= 25 M2 LIGHTS\".\n   ** Warning ** GetInternalHeatGains: Lights Combination of ZoneList and Object Name generate a name too long.\n   **   ~~~   ** Object Name=\"SPACE FUNCTION OFFICE ENCLOSED <= 25 M2 LIGHTS\".\n   **   ~~~   ** ZoneList/Zone Name=\"ALL_ST=OFFICE ENCLOSED <= 25 M2_FL=BUILDING STORY 1_SCH=A 1\".\n   **   ~~~   ** Item length=[105] > Maximum Length=[100]. You may need to shorten the names.\n   **   ~~~   ** Shortening the Object Name by [6] characters will assure uniqueness for this ZoneList.\n   **   ~~~   ** name that will be used (may be needed in reporting)=\"ALL_ST=OFFICE ENCLOSED <= 25 M2_FL=BUILDING STORY 1_SCH=A 1 SPACE FUNCTION OFFICE ENCLOSED <= 25 M2 LIGHTS\".\n   ** Warning ** GetInternalHeatGains: Lights Combination of ZoneList and Object Name generate a name too long.\n   **   ~~~   ** Object Name=\"SPACE FUNCTION OFFICE ENCLOSED <= 25 M2 LIGHTS\".\n   **   ~~~   ** ZoneList/Zone Name=\"ALL_ST=OFFICE ENCLOSED <= 25 M2_FL=BUILDING STORY 1_SCH=A 2\".\n   **   ~~~   ** Item length=[105] > Maximum Length=[100]. You may need to shorten the names.\n   **   ~~~   ** Shortening the Object Name by [6] characters will assure uniqueness for this ZoneList.\n   **   ~~~   ** name that will be used (may be needed in reporting)=\"ALL_ST=OFFICE ENCLOSED <= 25 M2_FL=BUILDING STORY 1_SCH=A 2 SPACE FUNCTION OFFICE ENCLOSED <= 25 M2 LIGHTS\".\n   ** Warning ** GetInternalHeatGains: Lights Combination of ZoneList and Object Name generate a name too long.\n   **   ~~~   ** Object Name=\"SPACE FUNCTION OFFICE ENCLOSED <= 25 M2 LIGHTS\".\n   **   ~~~   ** ZoneList/Zone Name=\"ALL_ST=OFFICE ENCLOSED <= 25 M2_FL=BUILDING STORY 1_SCH=A 3\".\n   **   ~~~   ** Item length=[105] > Maximum Length=[100]. You may need to shorten the names.\n   **   ~~~   ** Shortening the Object Name by [6] characters will assure uniqueness for this ZoneList.\n   **   ~~~   ** name that will be used (may be needed in reporting)=\"ALL_ST=OFFICE ENCLOSED <= 25 M2_FL=BUILDING STORY 1_SCH=A 3 SPACE FUNCTION OFFICE ENCLOSED <= 25 M2 LIGHTS\".\n   ** Warning ** GetInternalHeatGains: Lights Combination of ZoneList and Object Name generate a name too long.\n   **   ~~~   ** Object Name=\"SPACE FUNCTION OFFICE ENCLOSED <= 25 M2 LIGHTS\".\n   **   ~~~   ** ZoneList/Zone Name=\"ALL_ST=OFFICE ENCLOSED <= 25 M2_FL=BUILDING STORY 1_SCH=A 4\".\n   **   ~~~   ** Item length=[105] > Maximum Length=[100]. You may need to shorten the names.\n   **   ~~~   ** Shortening the Object Name by [6] characters will assure uniqueness for this ZoneList.\n   **   ~~~   ** name that will be used (may be needed in reporting)=\"ALL_ST=OFFICE ENCLOSED <= 25 M2_FL=BUILDING STORY 1_SCH=A 4 SPACE FUNCTION OFFICE ENCLOSED <= 25 M2 LIGHTS\".\n   ** Warning ** GetInternalHeatGains: ElectricEquipment Combination of ZoneList and Object Name generate a name too long.\n   **   ~~~   ** Object Name=\"SPACE FUNCTION OFFICE ENCLOSED <= 25 M2 ELEC EQUIP\".\n   **   ~~~   ** ZoneList/Zone Name=\"ALL_ST=OFFICE ENCLOSED <= 25 M2_FL=BUILDING STORY 1_SCH=A\".\n   **   ~~~   ** Item length=[107] > Maximum Length=[100]. You may need to shorten the names.\n   **   ~~~   ** Shortening the Object Name by [10] characters will assure uniqueness for this ZoneList.\n   **   ~~~   ** name that will be used (may be needed in reporting)=\"ALL_ST=OFFICE ENCLOSED <= 25 M2_FL=BUILDING STORY 1_SCH=A SPACE FUNCTION OFFICE ENCLOSED <= 25 M2 ELEC EQUIP\".\n   ** Warning ** GetInternalHeatGains: ElectricEquipment Combination of ZoneList and Object Name generate a name too long.\n   **   ~~~   ** Object Name=\"SPACE FUNCTION OFFICE ENCLOSED <= 25 M2 ELEC EQUIP\".\n   **   ~~~   ** ZoneList/Zone Name=\"ALL_ST=OFFICE ENCLOSED <= 25 M2_FL=BUILDING STORY 1_SCH=A 1\".\n   **   ~~~   ** Item length=[109] > Maximum Length=[100]. You may need to shorten the names.\n   **   ~~~   ** Shortening the Object Name by [10] characters will assure uniqueness for this ZoneList.\n   **   ~~~   ** name that will be used (may be needed in reporting)=\"ALL_ST=OFFICE ENCLOSED <= 25 M2_FL=BUILDING STORY 1_SCH=A 1 SPACE FUNCTION OFFICE ENCLOSED <= 25 M2 ELEC EQUIP\".\n   ** Warning ** GetInternalHeatGains: ElectricEquipment Combination of ZoneList and Object Name generate a name too long.\n   **   ~~~   ** Object Name=\"SPACE FUNCTION OFFICE ENCLOSED <= 25 M2 ELEC EQUIP\".\n   **   ~~~   ** ZoneList/Zone Name=\"ALL_ST=OFFICE ENCLOSED <= 25 M2_FL=BUILDING STORY 1_SCH=A 2\".\n   **   ~~~   ** Item length=[109] > Maximum Length=[100]. You may need to shorten the names.\n   **   ~~~   ** Shortening the Object Name by [10] characters will assure uniqueness for this ZoneList.\n   **   ~~~   ** name that will be used (may be needed in reporting)=\"ALL_ST=OFFICE ENCLOSED <= 25 M2_FL=BUILDING STORY 1_SCH=A 2 SPACE FUNCTION OFFICE ENCLOSED <= 25 M2 ELEC EQUIP\".\n   ** Warning ** GetInternalHeatGains: ElectricEquipment Combination of ZoneList and Object Name generate a name too long.\n   **   ~~~   ** Object Name=\"SPACE FUNCTION OFFICE ENCLOSED <= 25 M2 ELEC EQUIP\".\n   **   ~~~   ** ZoneList/Zone Name=\"ALL_ST=OFFICE ENCLOSED <= 25 M2_FL=BUILDING STORY 1_SCH=A 3\".\n   **   ~~~   ** Item length=[109] > Maximum Length=[100]. You may need to shorten the names.\n   **   ~~~   ** Shortening the Object Name by [10] characters will assure uniqueness for this ZoneList.\n   **   ~~~   ** name that will be used (may be needed in reporting)=\"ALL_ST=OFFICE ENCLOSED <= 25 M2_FL=BUILDING STORY 1_SCH=A 3 SPACE FUNCTION OFFICE ENCLOSED <= 25 M2 ELEC EQUIP\".\n   ** Warning ** GetInternalHeatGains: ElectricEquipment Combination of ZoneList and Object Name generate a name too long.\n   **   ~~~   ** Object Name=\"SPACE FUNCTION OFFICE ENCLOSED <= 25 M2 ELEC EQUIP\".\n   **   ~~~   ** ZoneList/Zone Name=\"ALL_ST=OFFICE ENCLOSED <= 25 M2_FL=BUILDING STORY 1_SCH=A 4\".\n   **   ~~~   ** Item length=[109] > Maximum Length=[100]. You may need to shorten the names.\n   **   ~~~   ** Shortening the Object Name by [10] characters will assure uniqueness for this ZoneList.\n   **   ~~~   ** name that will be used (may be needed in reporting)=\"ALL_ST=OFFICE ENCLOSED <= 25 M2_FL=BUILDING STORY 1_SCH=A 4 SPACE FUNCTION OFFICE ENCLOSED <= 25 M2 ELEC EQUIP\".\n   ************* Beginning System Sizing Calculations\n   ************* Beginning Plant Sizing Calculations\n   ** Warning ** GetOAControllerInputs: Controller:MechanicalVentilation=\"CONTROLLER MECHANICAL VENTILATION 1\n   **   ~~~   ** Cannot locate a matching DesignSpecification:ZoneAirDistribution object for Zone=\"ALL_ST=OFFICE ENCLOSED <= 25 M2_FL=BUILDING STORY 1_SCH=A\".\n   **   ~~~   ** Using default zone air distribution effectiveness of 1.0 for heating and cooling.\n   ** Warning ** GetOAControllerInputs: Controller:MechanicalVentilation=\"CONTROLLER MECHANICAL VENTILATION 2\n   **   ~~~   ** Cannot locate a matching DesignSpecification:ZoneAirDistribution object for Zone=\"ALL_ST=OFFICE ENCLOSED <= 25 M2_FL=BUILDING STORY 1_SCH=A 1\".\n   **   ~~~   ** Using default zone air distribution effectiveness of 1.0 for heating and cooling.\n   ** Warning ** GetOAControllerInputs: Controller:MechanicalVentilation=\"CONTROLLER MECHANICAL VENTILATION 3\n   **   ~~~   ** Cannot locate a matching DesignSpecification:ZoneAirDistribution object for Zone=\"ALL_ST=OFFICE ENCLOSED <= 25 M2_FL=BUILDING STORY 1_SCH=A 2\".\n   **   ~~~   ** Using default zone air distribution effectiveness of 1.0 for heating and cooling.\n   ** Warning ** GetOAControllerInputs: Controller:MechanicalVentilation=\"CONTROLLER MECHANICAL VENTILATION 4\n   **   ~~~   ** Cannot locate a matching DesignSpecification:ZoneAirDistribution object for Zone=\"ALL_ST=OFFICE ENCLOSED <= 25 M2_FL=BUILDING STORY 1_SCH=A 3\".\n   **   ~~~   ** Using default zone air distribution effectiveness of 1.0 for heating and cooling.\n   ** Warning ** GetOAControllerInputs: Controller:MechanicalVentilation=\"CONTROLLER MECHANICAL VENTILATION 5\n   **   ~~~   ** Cannot locate a matching DesignSpecification:ZoneAirDistribution object for Zone=\"ALL_ST=OFFICE ENCLOSED <= 25 M2_FL=BUILDING STORY 1_SCH=A 4\".\n   **   ~~~   ** Using default zone air distribution effectiveness of 1.0 for heating and cooling.\n   ** Warning ** GetDXCoils: Coil:Cooling:DX:SingleSpeed=\"COILCOOLINGDXSINGLESPEED_DX 16KBTU/HR 14.0SEER\", invalid\n   **   ~~~   ** ...Part Load Fraction Correlation Curve Name = DXCOOL-NECB2011-REF-COOLPLFFPLR has out of range value.\n   **   ~~~   ** ...Curve maximum must be <= 1.0, curve max at PLR = 0.99 is 1.015\n   **   ~~~   ** ...Setting curve maximum to 1.0 and simulation continues.\n   ** Warning ** The Standard Ratings is calculated for Coil:Cooling:DX:SingleSpeed = COILCOOLINGDXSINGLESPEED_DX 16KBTU/HR 14.0SEER but not at the AHRI test condition due to curve out of bound.\n   **   ~~~   **  Review the Standard Ratings calculations in the Engineering Reference for this coil type. Also, use Output:Diagnostics, DisplayExtraWarnings for further guidance.\n   ** Warning ** The Standard Ratings is calculated for Coil:Cooling:DX:SingleSpeed = COILCOOLINGDXSINGLESPEED_DX 1 16KBTU/HR 14.0SEER but not at the AHRI test condition due to curve out of bound.\n   **   ~~~   **  Review the Standard Ratings calculations in the Engineering Reference for this coil type. Also, use Output:Diagnostics, DisplayExtraWarnings for further guidance.\n   ** Warning ** The Standard Ratings is calculated for Coil:Cooling:DX:SingleSpeed = COILCOOLINGDXSINGLESPEED_DX 2 28KBTU/HR 14.0SEER but not at the AHRI test condition due to curve out of bound.\n   **   ~~~   **  Review the Standard Ratings calculations in the Engineering Reference for this coil type. Also, use Output:Diagnostics, DisplayExtraWarnings for further guidance.\n   ** Warning ** The Standard Ratings is calculated for Coil:Cooling:DX:SingleSpeed = COILCOOLINGDXSINGLESPEED_DX 3 32KBTU/HR 14.0SEER but not at the AHRI test condition due to curve out of bound.\n   **   ~~~   **  Review the Standard Ratings calculations in the Engineering Reference for this coil type. Also, use Output:Diagnostics, DisplayExtraWarnings for further guidance.\n   ** Warning ** The Standard Ratings is calculated for Coil:Cooling:DX:SingleSpeed = COILCOOLINGDXSINGLESPEED_DX 4 27KBTU/HR 14.0SEER but not at the AHRI test condition due to curve out of bound.\n   **   ~~~   **  Review the Standard Ratings calculations in the Engineering Reference for this coil type. Also, use Output:Diagnostics, DisplayExtraWarnings for further guidance.\n   ** Warning ** Output:Meter: invalid Key Name=\"NATURALGAS:FACILITY\" - not found.\n   ** Warning ** Output:Meter: invalid Key Name=\"NATURALGAS:FACILITY\" - not found.\n   ** Warning ** Output:Meter: invalid Key Name=\"GAS:FACILITY\" - not found.\n   ** Warning ** Output:Meter: invalid Key Name=\"DISTRICTCOOLING:FACILITY\" - not found.\n   ** Warning ** Output:Meter: invalid Key Name=\"DISTRICTHEATING:FACILITY\" - not found.\n   ** Warning ** Output:Meter:MeterFileOnly requested for \"Electricity:Facility\" (Hourly), already on \"Output:Meter\". Will report to both eplusout.eso and eplusout.mtr\n   ** Warning ** Output:Meter:MeterFileOnly: invalid Key Name=\"GAS:FACILITY\" - not found.\n   ** Warning ** Output:Meter:MeterFileOnly: invalid Key Name=\"GAS:FACILITY\" - not found.\n   ** Warning ** Output:Meter:MeterFileOnly requested for \"Electricity:Facility\" (TimeStep), already on \"Output:Meter\". Will report to both eplusout.eso and eplusout.mtr\n   ************* Testing Individual Branch Integrity\n   ************* All Branches passed integrity testing\n   ************* Testing Individual Supply Air Path Integrity\n   ************* All Supply Air Paths passed integrity testing\n   ************* Testing Individual Return Air Path Integrity\n   ************* All Return Air Paths passed integrity testing\n   ************* No node connection errors were found.\n   ************* Beginning Simulation\n   ** Warning ** Processing Monthly Tabular Reports: Variable names not valid for this simulation\n   **   ~~~   ** ...use Output:Diagnostics,DisplayExtraWarnings; to show more details on individual variables.\n   ** Warning ** CalcDoe2DXCoil: Coil:Cooling:DX:SingleSpeed \"COILCOOLINGDXSINGLESPEED_DX 2 28KBTU/HR 14.0SEER\" - Air-cooled condenser inlet dry-bulb temperature below 0 C. Outdoor dry-bulb temperature = -3.70\n   **   ~~~   **  ... Occurrence info = RUN PERIOD 1, 01/02 06:02 - 06:03\n   **   ~~~   ** ... Operation at low ambient temperatures may require special performance curves.\n   ** Warning ** CalcDoe2DXCoil: Coil:Cooling:DX:SingleSpeed \"COILCOOLINGDXSINGLESPEED_DX 3 32KBTU/HR 14.0SEER\" - Air-cooled condenser inlet dry-bulb temperature below 0 C. Outdoor dry-bulb temperature = -3.70\n   **   ~~~   **  ... Occurrence info = RUN PERIOD 1, 01/02 06:02 - 06:03\n   **   ~~~   ** ... Operation at low ambient temperatures may require special performance curves.\n   ** Warning ** CalcDoe2DXCoil: Coil:Cooling:DX:SingleSpeed \"COILCOOLINGDXSINGLESPEED_DX 4 27KBTU/HR 14.0SEER\" - Air-cooled condenser inlet dry-bulb temperature below 0 C. Outdoor dry-bulb temperature = -3.70\n   **   ~~~   **  ... Occurrence info = RUN PERIOD 1, 01/02 06:02 - 06:03\n   **   ~~~   ** ... Operation at low ambient temperatures may require special performance curves.\n   ** Warning ** CalcDoe2DXCoil: Coil:Cooling:DX:SingleSpeed \"COILCOOLINGDXSINGLESPEED_DX 1 16KBTU/HR 14.0SEER\" - Air-cooled condenser inlet dry-bulb temperature below 0 C. Outdoor dry-bulb temperature = -3.70\n   **   ~~~   **  ... Occurrence info = RUN PERIOD 1, 01/02 06:03 - 06:05\n   **   ~~~   ** ... Operation at low ambient temperatures may require special performance curves.\n   ** Warning ** CalcDoe2DXCoil: Coil:Cooling:DX:SingleSpeed \"COILCOOLINGDXSINGLESPEED_DX 16KBTU/HR 14.0SEER\" - Air-cooled condenser inlet dry-bulb temperature below 0 C. Outdoor dry-bulb temperature = -1.97\n   **   ~~~   **  ... Occurrence info = RUN PERIOD 1, 01/03 06:02 - 06:03\n   **   ~~~   ** ... Operation at low ambient temperatures may require special performance curves.\n   ** Warning ** The resource referenced by LifeCycleCost:UsePriceEscalation= \"U.S. AVG  COMMERCIAL-ELECTRICITY\" has no energy cost. \n   **   ~~~   ** ... It is likely that the wrong resource is used. The resource should match the meter used in Utility:Tariff.\n   ** Warning ** The resource referenced by LifeCycleCost:UsePriceEscalation= \"U.S. AVG  COMMERCIAL-DISTILLATE OIL\" has no energy cost. \n   **   ~~~   ** ... It is likely that the wrong resource is used. The resource should match the meter used in Utility:Tariff.\n   ** Warning ** The resource referenced by LifeCycleCost:UsePriceEscalation= \"U.S. AVG  COMMERCIAL-RESIDUAL OIL\" has no energy cost. \n   **   ~~~   ** ... It is likely that the wrong resource is used. The resource should match the meter used in Utility:Tariff.\n   ** Warning ** The resource referenced by LifeCycleCost:UsePriceEscalation= \"U.S. AVG  COMMERCIAL-NATURAL GAS\" has no energy cost. \n   **   ~~~   ** ... It is likely that the wrong resource is used. The resource should match the meter used in Utility:Tariff.\n   ** Warning ** The resource referenced by LifeCycleCost:UsePriceEscalation= \"U.S. AVG  COMMERCIAL-COAL\" has no energy cost. \n   **   ~~~   ** ... It is likely that the wrong resource is used. The resource should match the meter used in Utility:Tariff.\n   ************* Simulation Error Summary *************\n   ************* There are 9 unused schedules in input.\n   ************* There are 9 unused week schedules in input.\n   ************* There are 22 unused day schedules in input.\n   ************* Use Output:Diagnostics,DisplayUnusedSchedules; to see them.\n   *************\n   ************* ===== Recurring Error Summary =====\n   ************* The following recurring error messages occurred.\n   *************\n   *************  ** Warning ** CalcDoe2DXCoil: Coil:Cooling:DX:SingleSpeed=\"COILCOOLINGDXSINGLESPEED_DX 2 28KBTU/HR 14.0SEER\" - Low condenser dry-bulb temperature error continues...\n   *************  **   ~~~   **   This error occurred 38 total times;\n   *************  **   ~~~   **   during Warmup 0 times;\n   *************  **   ~~~   **   during Sizing 0 times.\n   *************  **   ~~~   **   Max=-2.775558E-017 [C]  Min=-3.7 [C]\n   *************\n   *************  ** Warning ** CalcDoe2DXCoil: Coil:Cooling:DX:SingleSpeed=\"COILCOOLINGDXSINGLESPEED_DX 3 32KBTU/HR 14.0SEER\" - Low condenser dry-bulb temperature error continues...\n   *************  **   ~~~   **   This error occurred 42 total times;\n   *************  **   ~~~   **   during Warmup 0 times;\n   *************  **   ~~~   **   during Sizing 0 times.\n   *************  **   ~~~   **   Max=-2.775558E-017 [C]  Min=-3.7 [C]\n   *************\n   *************  ** Warning ** CalcDoe2DXCoil: Coil:Cooling:DX:SingleSpeed=\"COILCOOLINGDXSINGLESPEED_DX 4 27KBTU/HR 14.0SEER\" - Low condenser dry-bulb temperature error continues...\n   *************  **   ~~~   **   This error occurred 43 total times;\n   *************  **   ~~~   **   during Warmup 0 times;\n   *************  **   ~~~   **   during Sizing 0 times.\n   *************  **   ~~~   **   Max=-3.333333E-002 [C]  Min=-3.7 [C]\n   *************\n   *************  ** Warning ** CalcDoe2DXCoil: Coil:Cooling:DX:SingleSpeed=\"COILCOOLINGDXSINGLESPEED_DX 1 16KBTU/HR 14.0SEER\" - Low condenser dry-bulb temperature error continues...\n   *************  **   ~~~   **   This error occurred 33 total times;\n   *************  **   ~~~   **   during Warmup 0 times;\n   *************  **   ~~~   **   during Sizing 0 times.\n   *************  **   ~~~   **   Max=-8.333333E-002 [C]  Min=-4.266667 [C]\n   *************\n   *************  ** Warning ** CalcDoe2DXCoil: Coil:Cooling:DX:SingleSpeed=\"COILCOOLINGDXSINGLESPEED_DX 16KBTU/HR 14.0SEER\" - Low condenser dry-bulb temperature error continues...\n   *************  **   ~~~   **   This error occurred 33 total times;\n   *************  **   ~~~   **   during Warmup 0 times;\n   *************  **   ~~~   **   during Sizing 0 times.\n   *************  **   ~~~   **   Max=-6.666667E-002 [C]  Min=-2.55 [C]\n   *************\n   *************\n   ************* ===== Final Error Summary =====\n   ************* The following error categories occurred.  Consider correcting or noting.\n   ************* Nominally Unused Constructions\n   ************* ..The nominally unused constructions warning is provided to alert you to potential conditions that can cause\n   ************* ..extra time during simulation. Each construction is calculated by the algorithm indicated in the HeatBalanceAlgorithm\n   ************* ..object. You may remove the constructions indicated (when you use the DisplayExtraWarnings option).\n   *************\n   ************* EnergyPlus Warmup Error Summary. During Warmup: 0 Warning; 0 Severe Errors.\n   ************* EnergyPlus Sizing Error Summary. During Sizing: 67 Warning; 0 Severe Errors.\n   ************* EnergyPlus Completed Successfully-- 282 Warning; 0 Severe Errors; Elapsed Time=00hr 00min 22.56sec\n",
  "file_format_version": "0.0.1",
  "file_paths": [
    "/mnt/openstudio/analysis_d904aff1-dbdd-41a2-aced-0d4c12834994/data_point_63a1b71a-130b-4070-8825-bf091b18d2f9/generated_files",
    "../weather",
    "../seeds",
    "../seed",
    "./files",
    "./weather",
    "../../files",
    "../../weather",
    "./"
  ],
  "hash": "E3BB6625",
  "measure_paths": [
    "../measures"
  ],
  "name": "SmallOffice",
  "osa_id": "d904aff1-dbdd-41a2-aced-0d4c12834994",
  "osd_id": "63a1b71a-130b-4070-8825-bf091b18d2f9",
  "run_directory": "./run",
  "seed_file": "EmptyModel.osm",
  "started_at": "20211224T151727Z",
  "steps": [
    {
      "arguments": {
        "building_type": "SmallOffice",
        "epw_file": "BC_Victoria",
        "sideload": false,
        "template": "NECB2017"
      },
      "description": "This measure creates an NECB prototype building from scratch and uses it as the base for an analysis.",
      "measure_dir_name": "nrc_create_necb_prototype_building",
      "name": "nrc_create_necb_prototype_building",
      "result": {
        "completed_at": "20211224T151813Z",
        "measure_class_name": "NrcCreateNECBPrototypeBuilding",
        "measure_display_name": "NrcCreateNECBPrototypeBuilding",
        "measure_name": "nrc_create_necb_prototype_building",
        "measure_taxonomy": "Whole Building.Space Types",
        "measure_type": "ModelMeasure",
        "measure_uid": "3e9acd53-8602-4749-a655-7cbbe48e8b30",
        "measure_version_id": "4f33ab2f-0b19-4860-8ada-ac0f5a5dcf17",
        "measure_version_modified": "20211224T141224Z",
        "measure_xml_checksum": "2C38F48B",
        "started_at": "20211224T151733Z",
        "stderr": "",
        "stdout": "",
        "step_errors": [],
        "step_files": [],
        "step_info": [
          "Using OpenStudio Standards version 0.2.15 with template NECB2017.",
          "Started adding weather file for climate zone: NECB HDD Method.",
          "Added Victoria Intl AP Ann Clg .4% Condns DB=>MWB design day.",
          "Added Victoria Intl AP Ann Htg 99.6% Condns DB design day.",
          "Loaded space type map from model",
          "Finished adding geometry",
          "Using OpenStudio Standards version 0.2.15 with template NECB2017.",
          "Using OpenStudio Standards version 0.2.15 with template NECB2011.",
          "Started applying space types (loads)",
          "Space Function - undefined - had no ventilation specification, one has been created.",
          "Space Function - undefined - had no infiltration objects, one has been created.",
          "Space Function - undefined - set infiltration to 0.0 per ft^2 exterior surface area.",
          "Space Function - undefined - set infiltration schedule to Always On.",
          "Space Function Office enclosed <= 25 m2 had no people, one has been created.",
          "Space Function Office enclosed <= 25 m2 set occupancy to 4.646840148698885 people/1000 ft^2.",
          "Space Function Office enclosed <= 25 m2 had no lights, one has been created.",
          "Space Function Office enclosed <= 25 m2 set LPD to 0.929023 W/ft^2.",
          "Space Function Office enclosed <= 25 m2 had no electric equipment, one has been created.",
          "Space Function Office enclosed <= 25 m2 set electric EPD to 0.6970260223048327 W/ft^2.",
          "Space Function Office enclosed <= 25 m2 had no ventilation specification, one has been created.",
          "Space Function Office enclosed <= 25 m2 set ventilation per person to 30.127999999999997 cfm/person.",
          "Space Function Office enclosed <= 25 m2 had no infiltration objects, one has been created.",
          "Space Function Office enclosed <= 25 m2 set infiltration to 0.0 per ft^2 exterior surface area.",
          "Space Function Office enclosed <= 25 m2 set occupancy schedule to NECB-A-Occupancy.",
          "Space Function Office enclosed <= 25 m2 set occupant activity schedule to NECB-Activity.",
          "Space Function Office enclosed <= 25 m2 set lighting schedule to OS:Schedule:Ruleset,\n  {0e43df1e-e2f4-472c-9cc2-5159317c53c8}, !- Handle\n  NECB-A-Occupancy-NECB-A-Lighting-0.3-0.1-0.67-Light Ruleset, !- Name\n  {67409ded-c57b-4cae-88b4-57c2fd633fa9}, !- Schedule Type Limits Name\n  {37db7eb1-d85e-4f8b-b15c-e743e778d59b}; !- Default Day Schedule Name\n\n.",
          "Space Function Office enclosed <= 25 m2 set electric equipment schedule to NECB-A-Electric-Equipment.",
          "Space Function Office enclosed <= 25 m2 set infiltration schedule to Always On.",
          "Space Function Office enclosed <= 25 m2 set heating setpoint schedule to NECB-A-Thermostat Setpoint-Heating.",
          "Space Function Office enclosed <= 25 m2 set cooling setpoint schedule to NECB-A-Thermostat Setpoint-Cooling.",
          "Finished applying space types (loads)",
          "Finished adding geometry",
          "For NECB2017, no exterior wall area was found, no infiltration will be added.",
          "Started applying constructions",
          "Finished applying constructions",
          "Started creating thermal zones",
          "Finished creating thermal zones",
          "This building has no exposed ceilings adjacent to spaces that are not attics or plenums.  No skylights will be added.",
          "Finished adding geometry",
          "Using OpenStudio Standards version 0.2.15 with template NECB2017.",
          "Started creating thermal zones",
          "Finished creating thermal zones",
          "Running simulation /mnt/openstudio/analysis_d904aff1-dbdd-41a2-aced-0d4c12834994/data_point_63a1b71a-130b-4070-8825-bf091b18d2f9/run/000_nrc_create_necb_prototype_building/autozone.",
          "Finished run.",
          "Finished adding geometry",
          "Using OpenStudio Standards version 0.2.15 with template NECB2017.",
          "Running simulation /mnt/openstudio/analysis_d904aff1-dbdd-41a2-aced-0d4c12834994/data_point_63a1b71a-130b-4070-8825-bf091b18d2f9/run/000_nrc_create_necb_prototype_building/autozone_systems.",
          "Finished run.",
          "Started Adding Service Water Heating",
          "Added water heater called 13gal Electricity Water Heater - 9kBtu/hr",
          "Added circulating SWH loop called Main Service Water Loop",
          "Finished adding Service Water Heating",
          "Set sizing factors to 1.3 for heating and 1.3 for cooling.",
          "Finished adding geometry",
          "Running simulation /mnt/openstudio/analysis_d904aff1-dbdd-41a2-aced-0d4c12834994/data_point_63a1b71a-130b-4070-8825-bf091b18d2f9/run/000_nrc_create_necb_prototype_building/plant_loops.",
          "Finished run.",
          "Started applying prototype HVAC assumptions.",
          "For Fan Constant Volume 1: allowed_hp = 1.01HP; motor eff = 61.5%; total fan eff = 40% based on 588 cfm.",
          "For Fan Constant Volume 2: allowed_hp = 1.01HP; motor eff = 61.5%; total fan eff = 40% based on 597 cfm.",
          "For Fan Constant Volume 3: allowed_hp = 1.01HP; motor eff = 61.5%; total fan eff = 40% based on 1067 cfm.",
          "For Fan Constant Volume 4: allowed_hp = 1.01HP; motor eff = 61.5%; total fan eff = 40% based on 1189 cfm.",
          "For Fan Constant Volume 5: allowed_hp = 1.01HP; motor eff = 61.5%; total fan eff = 40% based on 1007 cfm.",
          "sys_3|mixed|shr>none|sc>dx|sh>c-e|ssf>cv|zh>b-e|zc>none|srf>none| does not require an economizer because the total cooling capacity of 15668 Btu/hr is less than the minimum capacity of 68243 Btu/hr.",
          "sys_3|mixed|shr>none|sc>dx|sh>c-e|ssf>cv|zh>b-e|zc>none|srf>none| 1 does not require an economizer because the total cooling capacity of 15922 Btu/hr is less than the minimum capacity of 68243 Btu/hr.",
          "sys_3|mixed|shr>none|sc>dx|sh>c-e|ssf>cv|zh>b-e|zc>none|srf>none| 2 does not require an economizer because the total cooling capacity of 28443 Btu/hr is less than the minimum capacity of 68243 Btu/hr.",
          "sys_3|mixed|shr>none|sc>dx|sh>c-e|ssf>cv|zh>b-e|zc>none|srf>none| 3 does not require an economizer because the total cooling capacity of 31690 Btu/hr is less than the minimum capacity of 68243 Btu/hr.",
          "sys_3|mixed|shr>none|sc>dx|sh>c-e|ssf>cv|zh>b-e|zc>none|srf>none| 4 does not require an economizer because the total cooling capacity of 26835 Btu/hr is less than the minimum capacity of 68243 Btu/hr.",
          "Finished applying prototype HVAC assumptions.",
          "Started applying HVAC efficiency standards for NECB2017 template.",
          "For sys_3|mixed|shr>none|sc>dx|sh>c-e|ssf>cv|zh>b-e|zc>none|srf>none|: Annual occupied hours = 2860 hr/yr, assuming a 0.15 occupancy threshold.  This schedule will be used as the HVAC operation schedule.",
          "For NECB2017 NECB HDD Method:  sys_3|mixed|shr>none|sc>dx|sh>c-e|ssf>cv|zh>b-e|zc>none|srf>none|: DCV is not required for any system.",
          "For sys_3|mixed|shr>none|sc>dx|sh>c-e|ssf>cv|zh>b-e|zc>none|srf>none|: Motorized OA damper is required because the building has 2 stories which is greater than or equal to the minimum of 0 stories for climate zone NECB HDD Method, and the system OA intake of 171 cfm is greater than or equal to the minimum threshold of 0 cfm.",
          "For sys_3|mixed|shr>none|sc>dx|sh>c-e|ssf>cv|zh>b-e|zc>none|srf>none|: Setting motorized OA damper schedule to sys_3|mixed|shr>none|sc>dx|sh>c-e|ssf>cv|zh>b-e|zc>none|srf>none| Occ Sch.",
          "For sys_3|mixed|shr>none|sc>dx|sh>c-e|ssf>cv|zh>b-e|zc>none|srf>none|: Optimum start is not required since design flow rate of 588 cfm is below the limit of 10000 cfm.",
          "For sys_3|mixed|shr>none|sc>dx|sh>c-e|ssf>cv|zh>b-e|zc>none|srf>none|: No special economizer controls were modeled.",
          "For sys_3|mixed|shr>none|sc>dx|sh>c-e|ssf>cv|zh>b-e|zc>none|srf>none| 1: Annual occupied hours = 2860 hr/yr, assuming a 0.15 occupancy threshold.  This schedule will be used as the HVAC operation schedule.",
          "For NECB2017 NECB HDD Method:  sys_3|mixed|shr>none|sc>dx|sh>c-e|ssf>cv|zh>b-e|zc>none|srf>none| 1: DCV is not required for any system.",
          "For sys_3|mixed|shr>none|sc>dx|sh>c-e|ssf>cv|zh>b-e|zc>none|srf>none| 1: Motorized OA damper is required because the building has 2 stories which is greater than or equal to the minimum of 0 stories for climate zone NECB HDD Method, and the system OA intake of 226 cfm is greater than or equal to the minimum threshold of 0 cfm.",
          "For sys_3|mixed|shr>none|sc>dx|sh>c-e|ssf>cv|zh>b-e|zc>none|srf>none| 1: Setting motorized OA damper schedule to sys_3|mixed|shr>none|sc>dx|sh>c-e|ssf>cv|zh>b-e|zc>none|srf>none| 1 Occ Sch.",
          "For sys_3|mixed|shr>none|sc>dx|sh>c-e|ssf>cv|zh>b-e|zc>none|srf>none| 1: Optimum start is not required since design flow rate of 597 cfm is below the limit of 10000 cfm.",
          "For sys_3|mixed|shr>none|sc>dx|sh>c-e|ssf>cv|zh>b-e|zc>none|srf>none| 1: No special economizer controls were modeled.",
          "For sys_3|mixed|shr>none|sc>dx|sh>c-e|ssf>cv|zh>b-e|zc>none|srf>none| 2: Annual occupied hours = 2860 hr/yr, assuming a 0.15 occupancy threshold.  This schedule will be used as the HVAC operation schedule.",
          "For NECB2017 NECB HDD Method:  sys_3|mixed|shr>none|sc>dx|sh>c-e|ssf>cv|zh>b-e|zc>none|srf>none| 2: DCV is not required for any system.",
          "For sys_3|mixed|shr>none|sc>dx|sh>c-e|ssf>cv|zh>b-e|zc>none|srf>none| 2: Motorized OA damper is required because the building has 2 stories which is greater than or equal to the minimum of 0 stories for climate zone NECB HDD Method, and the system OA intake of 101 cfm is greater than or equal to the minimum threshold of 0 cfm.",
          "For sys_3|mixed|shr>none|sc>dx|sh>c-e|ssf>cv|zh>b-e|zc>none|srf>none| 2: Setting motorized OA damper schedule to sys_3|mixed|shr>none|sc>dx|sh>c-e|ssf>cv|zh>b-e|zc>none|srf>none| 2 Occ Sch.",
          "For sys_3|mixed|shr>none|sc>dx|sh>c-e|ssf>cv|zh>b-e|zc>none|srf>none| 2: Optimum start is not required since design flow rate of 1067 cfm is below the limit of 10000 cfm.",
          "For sys_3|mixed|shr>none|sc>dx|sh>c-e|ssf>cv|zh>b-e|zc>none|srf>none| 2: No special economizer controls were modeled.",
          "For sys_3|mixed|shr>none|sc>dx|sh>c-e|ssf>cv|zh>b-e|zc>none|srf>none| 3: Annual occupied hours = 2860 hr/yr, assuming a 0.15 occupancy threshold.  This schedule will be used as the HVAC operation schedule.",
          "For NECB2017 NECB HDD Method:  sys_3|mixed|shr>none|sc>dx|sh>c-e|ssf>cv|zh>b-e|zc>none|srf>none| 3: DCV is not required for any system.",
          "For sys_3|mixed|shr>none|sc>dx|sh>c-e|ssf>cv|zh>b-e|zc>none|srf>none| 3: Motorized OA damper is required because the building has 2 stories which is greater than or equal to the minimum of 0 stories for climate zone NECB HDD Method, and the system OA intake of 101 cfm is greater than or equal to the minimum threshold of 0 cfm.",
          "For sys_3|mixed|shr>none|sc>dx|sh>c-e|ssf>cv|zh>b-e|zc>none|srf>none| 3: Setting motorized OA damper schedule to sys_3|mixed|shr>none|sc>dx|sh>c-e|ssf>cv|zh>b-e|zc>none|srf>none| 3 Occ Sch.",
          "For sys_3|mixed|shr>none|sc>dx|sh>c-e|ssf>cv|zh>b-e|zc>none|srf>none| 3: Optimum start is not required since design flow rate of 1189 cfm is below the limit of 10000 cfm.",
          "For sys_3|mixed|shr>none|sc>dx|sh>c-e|ssf>cv|zh>b-e|zc>none|srf>none| 3: No special economizer controls were modeled.",
          "For sys_3|mixed|shr>none|sc>dx|sh>c-e|ssf>cv|zh>b-e|zc>none|srf>none| 4: Annual occupied hours = 2860 hr/yr, assuming a 0.15 occupancy threshold.  This schedule will be used as the HVAC operation schedule.",
          "For NECB2017 NECB HDD Method:  sys_3|mixed|shr>none|sc>dx|sh>c-e|ssf>cv|zh>b-e|zc>none|srf>none| 4: DCV is not required for any system.",
          "For sys_3|mixed|shr>none|sc>dx|sh>c-e|ssf>cv|zh>b-e|zc>none|srf>none| 4: Motorized OA damper is required because the building has 2 stories which is greater than or equal to the minimum of 0 stories for climate zone NECB HDD Method, and the system OA intake of 171 cfm is greater than or equal to the minimum threshold of 0 cfm.",
          "For sys_3|mixed|shr>none|sc>dx|sh>c-e|ssf>cv|zh>b-e|zc>none|srf>none| 4: Setting motorized OA damper schedule to sys_3|mixed|shr>none|sc>dx|sh>c-e|ssf>cv|zh>b-e|zc>none|srf>none| 4 Occ Sch.",
          "For sys_3|mixed|shr>none|sc>dx|sh>c-e|ssf>cv|zh>b-e|zc>none|srf>none| 4: Optimum start is not required since design flow rate of 1007 cfm is below the limit of 10000 cfm.",
          "For sys_3|mixed|shr>none|sc>dx|sh>c-e|ssf>cv|zh>b-e|zc>none|srf>none| 4: No special economizer controls were modeled.",
          "For Fan Constant Volume 1: motor nameplate = 0.3661262479876229HP, motor eff = 61.5%.",
          "For Fan Constant Volume 2: motor nameplate = 0.3720548509839565HP, motor eff = 61.5%.",
          "For Fan Constant Volume 3: motor nameplate = 0.6646319750196037HP, motor eff = 61.5%.",
          "For Fan Constant Volume 4: motor nameplate = 0.7405029803267416HP, motor eff = 61.5%.",
          "For Fan Constant Volume 5: motor nameplate = 0.6270614621978351HP, motor eff = 61.5%.",
          "For Main Service Water Loop Circulator Pump: brake hp = 0.0HP, motor nameplate = 0.1HP, motor eff = 70.0%.",
          "For NECB2017: CoilCoolingDXSingleSpeed_dx: AirCooled Electric Resistance or None Single Package Capacity = 16kBtu/hr; SEER = 14.0",
          "For NECB2017: CoilCoolingDXSingleSpeed_dx 1: AirCooled Electric Resistance or None Single Package Capacity = 16kBtu/hr; SEER = 14.0",
          "For NECB2017: CoilCoolingDXSingleSpeed_dx 2: AirCooled Electric Resistance or None Single Package Capacity = 28kBtu/hr; SEER = 14.0",
          "For NECB2017: CoilCoolingDXSingleSpeed_dx 3: AirCooled Electric Resistance or None Single Package Capacity = 32kBtu/hr; SEER = 14.0",
          "For NECB2017: CoilCoolingDXSingleSpeed_dx 4: AirCooled Electric Resistance or None Single Package Capacity = 27kBtu/hr; SEER = 14.0",
          "For NECB2017: 13gal Electricity Water Heater - 9kBtu/hr 1 Therm Eff; thermal efficiency = 1, skin-loss UA = 2Btu/hr",
          "Finished applying HVAC efficiency standards for NECB2017 template.",
          "Running simulation /mnt/openstudio/analysis_d904aff1-dbdd-41a2-aced-0d4c12834994/data_point_63a1b71a-130b-4070-8825-bf091b18d2f9/run/000_nrc_create_necb_prototype_building/SR2.",
          "Finished run.",
          "Total Time = 39sec."
        ],
        "step_result": "Success",
        "step_values": [
          {
            "name": "template",
            "value": "NECB2017"
          },
          {
            "name": "building_type",
            "value": "SmallOffice"
          },
          {
            "name": "epw_file",
            "value": "BC_Victoria"
          },
          {
            "name": "sideload",
            "value": false
          }
        ],
        "step_warnings": [
          "[openstudio.EpwFile] Successive data points (2011-Jan-31 to 2008-Feb-01, ending on line 753) are greater than 1 day apart in EPW file '/var/gems/openstudio-standards/data/weather/CAN_BC_Victoria.Intl.AP.717990_CWEC2016.epw'. Data will be treated as typical (TMY)",
          "[openstudio.weather.Model] Could not find ground temperatures in stat file; will use standards lookup.",
          "[openstudio.weather.Model] Could not find ground temperatures in standards lookup; will use generic temperatures, which will skew results.",
          "[openstudio.EpwFile] Successive data points (2011-Jan-31 to 2008-Feb-01, ending on line 753) are greater than 1 day apart in EPW file '/var/gems/openstudio-standards/data/weather/CAN_BC_Victoria.Intl.AP.717990_CWEC2016.epw'. Data will be treated as typical (TMY)",
          "[openstudio.EpwFile] Successive data points (2011-Jan-31 to 2008-Feb-01, ending on line 753) are greater than 1 day apart in EPW file '/var/gems/openstudio-standards/data/weather/CAN_BC_Victoria.Intl.AP.717990_CWEC2016.epw'. Data will be treated as typical (TMY)",
          "[openstudio.EpwFile] Successive data points (2011-Jan-31 to 2008-Feb-01, ending on line 753) are greater than 1 day apart in EPW file '/var/gems/openstudio-standards/data/weather/CAN_BC_Victoria.Intl.AP.717990_CWEC2016.epw'. Data will be treated as typical (TMY)",
          "[openstudio.EpwFile] Successive data points (2011-Jan-31 to 2008-Feb-01, ending on line 753) are greater than 1 day apart in EPW file '/var/gems/openstudio-standards/data/weather/CAN_BC_Victoria.Intl.AP.717990_CWEC2016.epw'. Data will be treated as typical (TMY)",
          "[openstudio.standards.Fan] For Fan Constant Volume 1, there is no greater nominal HP.  Use the efficiency of the largest motor category.",
          "[openstudio.standards.Fan] For Fan Constant Volume 2, there is no greater nominal HP.  Use the efficiency of the largest motor category.",
          "[openstudio.standards.Fan] For Fan Constant Volume 3, there is no greater nominal HP.  Use the efficiency of the largest motor category.",
          "[openstudio.standards.Fan] For Fan Constant Volume 4, there is no greater nominal HP.  Use the efficiency of the largest motor category.",
          "[openstudio.standards.Fan] For Fan Constant Volume 5, there is no greater nominal HP.  Use the efficiency of the largest motor category.",
          "[openstudio.EpwFile] Successive data points (2011-Jan-31 to 2008-Feb-01, ending on line 753) are greater than 1 day apart in EPW file '/var/gems/openstudio-standards/data/weather/CAN_BC_Victoria.Intl.AP.717990_CWEC2016.epw'. Data will be treated as typical (TMY)",
          "[openstudio.EpwFile] Successive data points (2011-Jan-31 to 2008-Feb-01, ending on line 753) are greater than 1 day apart in EPW file '/var/gems/openstudio-standards/data/weather/CAN_BC_Victoria.Intl.AP.717990_CWEC2016.epw'. Data will be treated as typical (TMY)",
          "[openstudio.EpwFile] Successive data points (2011-Jan-31 to 2008-Feb-01, ending on line 753) are greater than 1 day apart in EPW file '/var/gems/openstudio-standards/data/weather/CAN_BC_Victoria.Intl.AP.717990_CWEC2016.epw'. Data will be treated as typical (TMY)",
          "[openstudio.EpwFile] Successive data points (2011-Jan-31 to 2008-Feb-01, ending on line 753) are greater than 1 day apart in EPW file '/var/gems/openstudio-standards/data/weather/CAN_BC_Victoria.Intl.AP.717990_CWEC2016.epw'. Data will be treated as typical (TMY)",
          "[openstudio.EpwFile] Successive data points (2011-Jan-31 to 2008-Feb-01, ending on line 753) are greater than 1 day apart in EPW file '/var/gems/openstudio-standards/data/weather/CAN_BC_Victoria.Intl.AP.717990_CWEC2016.epw'. Data will be treated as typical (TMY)",
          "[openstudio.standards.Fan] For Fan Constant Volume 1, there is no greater nominal HP.  Use the efficiency of the largest motor category.",
          "[openstudio.standards.Fan] For Fan Constant Volume 2, there is no greater nominal HP.  Use the efficiency of the largest motor category.",
          "[openstudio.standards.Fan] For Fan Constant Volume 3, there is no greater nominal HP.  Use the efficiency of the largest motor category.",
          "[openstudio.standards.Fan] For Fan Constant Volume 4, there is no greater nominal HP.  Use the efficiency of the largest motor category.",
          "[openstudio.standards.Fan] For Fan Constant Volume 5, there is no greater nominal HP.  Use the efficiency of the largest motor category."
        ]
      }
    },
    {
      "arguments": {
        "air_loops_detail_section": true,
        "annual_overview_section": true,
        "building_summary_section": true,
        "cost_summary_section": true,
        "envelope_section_section": true,
        "exterior_light_section": true,
        "hvac_load_profile": true,
        "interior_lighting_section": true,
        "measure_warning_section": true,
        "monthly_overview_section": true,
        "outdoor_air_section": true,
        "plant_loops_detail_section": true,
        "plug_loads_section": true,
        "reg_monthly_details": false,
        "schedules_overview_section": true,
        "source_energy_section": true,
        "space_type_breakdown_section": true,
        "space_type_details_section": true,
        "units": "SI",
        "utility_bills_rates_section": true,
        "water_use_section": true,
        "zone_condition_section": true,
        "zone_equipment_detail_section": true,
        "zone_summary_section": true
      },
      "description": "This measure creates high level tables and charts pulling both from model inputs and EnergyPlus results. It has building level information as well as detail on space types, thermal zones, HVAC systems, envelope characteristics, and economics. Click the heading above a chart to view a table of the chart data.",
      "measure_dir_name": "da737820-833d-4734-8131-f962d58ea8e2",
      "name": "openstudio_results",
      "result": {
        "completed_at": "20211224T151848Z",
        "measure_class_name": "OpenStudioResults",
        "measure_display_name": "OpenStudio Results",
        "measure_name": "openstudio_results",
        "measure_taxonomy": "Reporting.QAQC",
        "measure_type": "ReportingMeasure",
        "measure_uid": "a25386cd-60e4-46bc-8b11-c755f379d916",
        "measure_version_id": "da737820-833d-4734-8131-f962d58ea8e2",
        "measure_version_modified": "20210423T144543Z",
        "measure_xml_checksum": "557BF06F",
        "started_at": "20211224T151842Z",
        "stderr": "",
        "stdout": "",
        "step_errors": [],
        "step_files": [
          "/mnt/openstudio/analysis_d904aff1-dbdd-41a2-aced-0d4c12834994/data_point_63a1b71a-130b-4070-8825-bf091b18d2f9/run/001_da737820-833d-4734-8131-f962d58ea8e2/report.html"
        ],
        "step_final_condition": "Generated report with 22 sections to ./report.html.",
        "step_info": [],
        "step_initial_condition": "Gathering data from EnergyPlus SQL file and OSM model. Will report in SI Units",
        "step_result": "Success",
        "step_values": [
          {
            "name": "units",
            "value": "SI"
          },
          {
            "name": "building_summary_section",
            "value": true
          },
          {
            "name": "annual_overview_section",
            "value": true
          },
          {
            "name": "monthly_overview_section",
            "value": true
          },
          {
            "name": "utility_bills_rates_section",
            "value": true
          },
          {
            "name": "envelope_section_section",
            "value": true
          },
          {
            "name": "space_type_breakdown_section",
            "value": true
          },
          {
            "name": "space_type_details_section",
            "value": true
          },
          {
            "name": "interior_lighting_section",
            "value": true
          },
          {
            "name": "plug_loads_section",
            "value": true
          },
          {
            "name": "exterior_light_section",
            "value": true
          },
          {
            "name": "water_use_section",
            "value": true
          },
          {
            "name": "hvac_load_profile",
            "value": true
          },
          {
            "name": "zone_condition_section",
            "value": true
          },
          {
            "name": "zone_summary_section",
            "value": true
          },
          {
            "name": "zone_equipment_detail_section",
            "value": true
          },
          {
            "name": "air_loops_detail_section",
            "value": true
          },
          {
            "name": "plant_loops_detail_section",
            "value": true
          },
          {
            "name": "outdoor_air_section",
            "value": true
          },
          {
            "name": "cost_summary_section",
            "value": true
          },
          {
            "name": "source_energy_section",
            "value": true
          },
          {
            "name": "schedules_overview_section",
            "value": true
          },
          {
            "name": "measure_warning_section",
            "value": true
          },
          {
            "name": "reg_monthly_details",
            "value": false
          },
          {
            "name": "standards_gem_version",
            "value": "0.2.15"
          },
          {
            "name": "workflow_gem_version",
            "value": "2.0.0"
          },
          {
            "display_name": "SmallOffice",
            "name": "building_name",
            "value": "n/a"
          },
          {
            "name": "total_site_energy",
            "units": "kWh",
            "value": 56222.222222222226
          },
          {
            "name": "net_site_energy",
            "units": "kWh",
            "value": 56222.222222222226
          },
          {
            "name": "total_building_area",
            "units": "m^2",
            "value": 511.16
          },
          {
            "name": "total_site_eui",
            "units": "kWh/m^2",
            "value": 109.98947926720054
          },
          {
            "name": "eui",
            "units": "kWh/m^2",
            "value": 109.98947926720054
          },
          {
            "name": "unmet_hours_during_heating",
            "units": "hr",
            "value": 1.17
          },
          {
            "name": "unmet_hours_during_cooling",
            "units": "hr",
            "value": 67.5
          },
          {
            "name": "unmet_hours_during_occupied_heating",
            "units": "hr",
            "value": 1.17
          },
          {
            "name": "unmet_hours_during_occupied_cooling",
            "units": "hr",
            "value": 56
          },
          {
            "name": "unmet_hours_tolerance_heating",
            "units": "K",
            "value": 1
          },
          {
            "name": "unmet_hours_tolerance_cooling",
            "units": "K",
            "value": 1
          },
          {
            "name": "end_use_heating",
            "units": "kWh",
            "value": 5636.111111111111
          },
          {
            "name": "end_use_cooling",
            "units": "kWh",
            "value": 4752.777777777778
          },
          {
            "name": "end_use_interior_lighting",
            "units": "kWh",
            "value": 14202.777777777777
          },
          {
            "name": "end_use_exterior_lighting",
            "units": "kWh",
            "value": 0
          },
          {
            "name": "end_use_interior_equipment",
            "units": "kWh",
            "value": 14197.222222222223
          },
          {
            "name": "end_use_exterior_equipment",
            "units": "kWh",
            "value": 0
          },
          {
            "name": "end_use_fans",
            "units": "kWh",
            "value": 11183.333333333334
          },
          {
            "name": "end_use_pumps",
            "units": "kWh",
            "value": 0
          },
          {
            "name": "end_use_heat_rejection",
            "units": "kWh",
            "value": 0
          },
          {
            "name": "end_use_humidification",
            "units": "kWh",
            "value": 0
          },
          {
            "name": "end_use_heat_recovery",
            "units": "kWh",
            "value": 0
          },
          {
            "name": "end_use_water_systems",
            "units": "kWh",
            "value": 6250
          },
          {
            "name": "end_use_refrigeration",
            "units": "kWh",
            "value": 0
          },
          {
            "name": "end_use_generators",
            "units": "kWh",
            "value": 0
          },
          {
            "name": "fuel_electricity",
            "units": "kBtu",
            "value": 191838.1851514154
          },
          {
            "name": "fuel_natural_gas",
            "units": "kBtu",
            "value": 0
          },
          {
            "name": "fuel_additional_fuel",
            "units": "kBtu",
            "value": 0
          },
          {
            "name": "fuel_district_cooling",
            "units": "kBtu",
            "value": 0
          },
          {
            "name": "fuel_district_heating",
            "units": "kBtu",
            "value": 0
          },
          {
            "name": "end_use_electricity_heating",
            "units": "kWh",
            "value": 5636.111111111111
          },
          {
            "name": "end_use_electricity_cooling",
            "units": "kWh",
            "value": 4752.777777777778
          },
          {
            "name": "end_use_electricity_interior_lighting",
            "units": "kWh",
            "value": 14202.777777777777
          },
          {
            "name": "end_use_electricity_exterior_lighting",
            "units": "kWh",
            "value": 0
          },
          {
            "name": "end_use_electricity_interior_equipment",
            "units": "kWh",
            "value": 14197.222222222223
          },
          {
            "name": "end_use_electricity_exterior_equipment",
            "units": "kWh",
            "value": 0
          },
          {
            "name": "end_use_electricity_fans",
            "units": "kWh",
            "value": 11183.333333333334
          },
          {
            "name": "end_use_electricity_pumps",
            "units": "kWh",
            "value": 0
          },
          {
            "name": "end_use_electricity_heat_rejection",
            "units": "kWh",
            "value": 0
          },
          {
            "name": "end_use_electricity_humidification",
            "units": "kWh",
            "value": 0
          },
          {
            "name": "end_use_electricity_heat_recovery",
            "units": "kWh",
            "value": 0
          },
          {
            "name": "end_use_electricity_water_systems",
            "units": "kWh",
            "value": 6250
          },
          {
            "name": "end_use_electricity_refrigeration",
            "units": "kWh",
            "value": 0
          },
          {
            "name": "end_use_electricity_generators",
            "units": "kWh",
            "value": 0
          },
          {
            "name": "end_use_natural_gas_heating",
            "units": "kWh",
            "value": 0
          },
          {
            "name": "end_use_natural_gas_cooling",
            "units": "kWh",
            "value": 0
          },
          {
            "name": "end_use_natural_gas_interior_lighting",
            "units": "kWh",
            "value": 0
          },
          {
            "name": "end_use_natural_gas_exterior_lighting",
            "units": "kWh",
            "value": 0
          },
          {
            "name": "end_use_natural_gas_interior_equipment",
            "units": "kWh",
            "value": 0
          },
          {
            "name": "end_use_natural_gas_exterior_equipment",
            "units": "kWh",
            "value": 0
          },
          {
            "name": "end_use_natural_gas_fans",
            "units": "kWh",
            "value": 0
          },
          {
            "name": "end_use_natural_gas_pumps",
            "units": "kWh",
            "value": 0
          },
          {
            "name": "end_use_natural_gas_heat_rejection",
            "units": "kWh",
            "value": 0
          },
          {
            "name": "end_use_natural_gas_humidification",
            "units": "kWh",
            "value": 0
          },
          {
            "name": "end_use_natural_gas_heat_recovery",
            "units": "kWh",
            "value": 0
          },
          {
            "name": "end_use_natural_gas_water_systems",
            "units": "kWh",
            "value": 0
          },
          {
            "name": "end_use_natural_gas_refrigeration",
            "units": "kWh",
            "value": 0
          },
          {
            "name": "end_use_natural_gas_generators",
            "units": "kWh",
            "value": 0
          },
          {
            "name": "electricity_heating_ip",
            "units": "kWh",
            "value": 5637.365972911112
          },
          {
            "name": "electricity_cooling_ip",
            "units": "kWh",
            "value": 4753.519655552777
          },
          {
            "name": "electricity_interior_lighting_ip",
            "units": "kWh",
            "value": 14203.336111111112
          },
          {
            "name": "electricity_exterior_lighting_ip",
            "units": "kWh",
            "value": 0
          },
          {
            "name": "electricity_interior_equipment_ip",
            "units": "kWh",
            "value": 14197.444444444443
          },
          {
            "name": "electricity_exterior_equipment_ip",
            "units": "kWh",
            "value": 0
          },
          {
            "name": "electricity_fans_ip",
            "units": "kWh",
            "value": 11182.058333333334
          },
          {
            "name": "electricity_pumps_ip",
            "units": "kWh",
            "value": 0.08039109722222222
          },
          {
            "name": "electricity_heat_rejection_ip",
            "units": "kWh",
            "value": 0
          },
          {
            "name": "electricity_humidification_ip",
            "units": "kWh",
            "value": 0
          },
          {
            "name": "electricity_heat_recovery_ip",
            "units": "kWh",
            "value": 0
          },
          {
            "name": "electricity_water_systems_ip",
            "units": "kWh",
            "value": 6248.775000000001
          },
          {
            "name": "electricity_refrigeration_ip",
            "units": "kWh",
            "value": 0
          },
          {
            "name": "electricity_generators_ip",
            "units": "kWh",
            "value": 0
          },
          {
            "name": "electricity_ip",
            "units": "kWh",
            "value": 56222.57990845
          },
          {
            "name": "natural_gas_heating_ip",
            "units": "kWh",
            "value": 0
          },
          {
            "name": "natural_gas_cooling_ip",
            "units": "kWh",
            "value": 0
          },
          {
            "name": "natural_gas_interior_lighting_ip",
            "units": "kWh",
            "value": 0
          },
          {
            "name": "natural_gas_exterior_lighting_ip",
            "units": "kWh",
            "value": 0
          },
          {
            "name": "natural_gas_interior_equipment_ip",
            "units": "kWh",
            "value": 0
          },
          {
            "name": "natural_gas_exterior_equipment_ip",
            "units": "kWh",
            "value": 0
          },
          {
            "name": "natural_gas_fans_ip",
            "units": "kWh",
            "value": 0
          },
          {
            "name": "natural_gas_pumps_ip",
            "units": "kWh",
            "value": 0
          },
          {
            "name": "natural_gas_heat_rejection_ip",
            "units": "kWh",
            "value": 0
          },
          {
            "name": "natural_gas_humidification_ip",
            "units": "kWh",
            "value": 0
          },
          {
            "name": "natural_gas_heat_recovery_ip",
            "units": "kWh",
            "value": 0
          },
          {
            "name": "natural_gas_water_systems_ip",
            "units": "kWh",
            "value": 0
          },
          {
            "name": "natural_gas_refrigeration_ip",
            "units": "kWh",
            "value": 0
          },
          {
            "name": "natural_gas_generators_ip",
            "units": "kWh",
            "value": 0
          },
          {
            "name": "natural_gas_ip",
            "units": "kWh",
            "value": 0
          },
          {
            "name": "additional_fuel_heating_ip",
            "units": "kWh",
            "value": 0
          },
          {
            "name": "additional_fuel_cooling_ip",
            "units": "kWh",
            "value": 0
          },
          {
            "name": "additional_fuel_interior_lighting_ip",
            "units": "kWh",
            "value": 0
          },
          {
            "name": "additional_fuel_exterior_lighting_ip",
            "units": "kWh",
            "value": 0
          },
          {
            "name": "additional_fuel_interior_equipment_ip",
            "units": "kWh",
            "value": 0
          },
          {
            "name": "additional_fuel_exterior_equipment_ip",
            "units": "kWh",
            "value": 0
          },
          {
            "name": "additional_fuel_fans_ip",
            "units": "kWh",
            "value": 0
          },
          {
            "name": "additional_fuel_pumps_ip",
            "units": "kWh",
            "value": 0
          },
          {
            "name": "additional_fuel_heat_rejection_ip",
            "units": "kWh",
            "value": 0
          },
          {
            "name": "additional_fuel_humidification_ip",
            "units": "kWh",
            "value": 0
          },
          {
            "name": "additional_fuel_heat_recovery_ip",
            "units": "kWh",
            "value": 0
          },
          {
            "name": "additional_fuel_water_systems_ip",
            "units": "kWh",
            "value": 0
          },
          {
            "name": "additional_fuel_refrigeration_ip",
            "units": "kWh",
            "value": 0
          },
          {
            "name": "additional_fuel_generators_ip",
            "units": "kWh",
            "value": 0
          },
          {
            "name": "additional_fuel_ip",
            "units": "kWh",
            "value": 0
          },
          {
            "name": "district_cooling_heating_ip",
            "units": "kWh",
            "value": 0
          },
          {
            "name": "district_cooling_cooling_ip",
            "units": "kWh",
            "value": 0
          },
          {
            "name": "district_cooling_interior_lighting_ip",
            "units": "kWh",
            "value": 0
          },
          {
            "name": "district_cooling_exterior_lighting_ip",
            "units": "kWh",
            "value": 0
          },
          {
            "name": "district_cooling_interior_equipment_ip",
            "units": "kWh",
            "value": 0
          },
          {
            "name": "district_cooling_exterior_equipment_ip",
            "units": "kWh",
            "value": 0
          },
          {
            "name": "district_cooling_fans_ip",
            "units": "kWh",
            "value": 0
          },
          {
            "name": "district_cooling_pumps_ip",
            "units": "kWh",
            "value": 0
          },
          {
            "name": "district_cooling_heat_rejection_ip",
            "units": "kWh",
            "value": 0
          },
          {
            "name": "district_cooling_humidification_ip",
            "units": "kWh",
            "value": 0
          },
          {
            "name": "district_cooling_heat_recovery_ip",
            "units": "kWh",
            "value": 0
          },
          {
            "name": "district_cooling_water_systems_ip",
            "units": "kWh",
            "value": 0
          },
          {
            "name": "district_cooling_refrigeration_ip",
            "units": "kWh",
            "value": 0
          },
          {
            "name": "district_cooling_generators_ip",
            "units": "kWh",
            "value": 0
          },
          {
            "name": "district_cooling_ip",
            "units": "kWh",
            "value": 0
          },
          {
            "name": "district_heating_heating_ip",
            "units": "kWh",
            "value": 0
          },
          {
            "name": "district_heating_cooling_ip",
            "units": "kWh",
            "value": 0
          },
          {
            "name": "district_heating_interior_lighting_ip",
            "units": "kWh",
            "value": 0
          },
          {
            "name": "district_heating_exterior_lighting_ip",
            "units": "kWh",
            "value": 0
          },
          {
            "name": "district_heating_interior_equipment_ip",
            "units": "kWh",
            "value": 0
          },
          {
            "name": "district_heating_exterior_equipment_ip",
            "units": "kWh",
            "value": 0
          },
          {
            "name": "district_heating_fans_ip",
            "units": "kWh",
            "value": 0
          },
          {
            "name": "district_heating_pumps_ip",
            "units": "kWh",
            "value": 0
          },
          {
            "name": "district_heating_heat_rejection_ip",
            "units": "kWh",
            "value": 0
          },
          {
            "name": "district_heating_humidification_ip",
            "units": "kWh",
            "value": 0
          },
          {
            "name": "district_heating_heat_recovery_ip",
            "units": "kWh",
            "value": 0
          },
          {
            "name": "district_heating_water_systems_ip",
            "units": "kWh",
            "value": 0
          },
          {
            "name": "district_heating_refrigeration_ip",
            "units": "kWh",
            "value": 0
          },
          {
            "name": "district_heating_generators_ip",
            "units": "kWh",
            "value": 0
          },
          {
            "name": "district_heating_ip",
            "units": "kWh",
            "value": 0
          },
          {
            "name": "btap_ext_floor_mass_u_0_227",
            "units": "m^2",
            "value": 56.8199999999999
          },
          {
            "name": "btap_ext_roof_metal_u_0_193",
            "units": "m^2",
            "value": 598.7616811798497
          },
          {
            "name": "btap_ext_wall_mass_u_0_315",
            "units": "m^2",
            "value": 168.9090000000002
          },
          {
            "name": "btap_ext_fixed_window_u_0_210_shgc_0_600",
            "units": "m^2",
            "value": 112.6059999999998
          },
          {
            "name": "gross_window_wall_ratio",
            "units": "%",
            "value": 40
          },
          {
            "name": "gross_window_wall_ratio_conditioned",
            "units": "%",
            "value": 40
          },
          {
            "name": "skylight_roof_ratio",
            "units": "%",
            "value": 0
          },
          {
            "name": "space_type_space_function_undefined",
            "units": "m^2",
            "value": 0
          },
          {
            "name": "space_type_space_function_office_enclosed_25_m_2",
            "units": "m^2",
            "value": 511.15740000000005
          },
          {
            "name": "core_zn_service_water_use_0_06_gal_min",
            "units": "m^3/h",
            "value": 0.012876821763762744
          },
          {
            "name": "perimeter_zn_1_service_water_use_0_04_gal_min",
            "units": "m^3/h",
            "value": 0.009761464712729736
          },
          {
            "name": "perimeter_zn_2_service_water_use_0_03_gal_min",
            "units": "m^3/h",
            "value": 0.005790626488908864
          },
          {
            "name": "perimeter_zn_3_service_water_use_0_04_gal_min",
            "units": "m^3/h",
            "value": 0.009761464712729772
          },
          {
            "name": "perimeter_zn_4_service_water_use_0_03_gal_min",
            "units": "m^3/h",
            "value": 0.005790626488908864
          },
          {
            "name": "zone_max_hours_over_70_rh",
            "units": "hr",
            "value": 421
          },
          {
            "name": "zone_max_hours_over_55_rh",
            "units": "hr",
            "value": 1689
          },
          {
            "name": "num_zones_x_hours_over_70",
            "units": "zones",
            "value": 1
          },
          {
            "name": "num_zones_x_hours_over_55",
            "units": "zones",
            "value": 6
          },
          {
            "name": "inflation_approach",
            "value": "Constant Dollar"
          },
          {
            "name": "analysis_length",
            "units": "yrs",
            "value": 25
          },
          {
            "name": "number_of_measures_with_warnings",
            "value": 1
          },
          {
            "name": "number_warnings",
            "value": 22
          },
          {
            "name": "annual_peak_electric_demand",
            "units": "kW",
            "value": 30.693830000000002
          },
          {
            "name": "first_year_capital_cost",
            "units": "$",
            "value": 0
          },
          {
            "name": "annual_utility_cost",
            "units": "$",
            "value": 0
          },
          {
            "name": "total_lifecycle_cost",
            "units": "$",
            "value": 0
          }
        ],
        "step_warnings": []
      }
    },
    {
      "arguments": {
        "calc_choice": "Use rates below",
        "electricity_cost": 0.1,
        "gas_cost": 0.2
      },
      "description": "This measure calculates utility costs for Canadian locations. By default a simple $/kWh tarrif can be applied but for \n\t    several locations more complex rules are enabled.\n\t\tPeak values are reported averaged over the hour (the default LEED table produced by E+ reports the PEAK timestep value).",
      "measure_dir_name": "nrc_report_utility_costs",
      "name": "nrc_report_utility_costs",
      "result": {
        "completed_at": "20211224T151848Z",
        "measure_class_name": "NrcReportUtilityCosts",
        "measure_display_name": "Report Utility Costs",
        "measure_name": "nrc_report_utility_costs",
        "measure_taxonomy": "Reporting.QAQC",
        "measure_type": "ReportingMeasure",
        "measure_uid": "224561f4-8ccc-4f60-8118-34b85359d6f1",
        "measure_version_id": "a8a2acdd-191f-47e2-b076-e7b60c4dacb5",
        "measure_version_modified": "20211224T150114Z",
        "measure_xml_checksum": "9BF1E6AC",
        "started_at": "20211224T151848Z",
        "stderr": "",
        "stdout": "",
        "step_errors": [],
        "step_files": [
          "/mnt/openstudio/analysis_d904aff1-dbdd-41a2-aced-0d4c12834994/data_point_63a1b71a-130b-4070-8825-bf091b18d2f9/run/002_nrc_report_utility_costs/report.html"
        ],
        "step_info": [],
        "step_result": "Success",
        "step_values": [
          {
            "name": "calc_choice",
            "value": "Use rates below"
          },
          {
            "name": "electricity_cost",
            "value": 0.1
          },
          {
            "name": "gas_cost",
            "value": 0.2
          },
          {
            "name": "total_site_energy",
            "units": "kWh",
            "value": 56220
          },
          {
            "name": "annual_electricity_use_k_wh",
            "units": "kWh",
            "value": 56200
          },
          {
            "name": "annual_natural_gas_use_gj",
            "units": "GJ",
            "value": 0
          },
          {
            "name": "annual_electricity_cost",
            "units": "$",
            "value": 5622.23
          },
          {
            "name": "annual_natural_gas_cost",
            "units": "$",
            "value": 0
          }
        ],
        "step_warnings": []
      }
    }
  ],
  "updated_at": "20211224T151851Z",
  "weather_file": "SeedWeather.epw"
}